tests/data/dynamic_voltage_support_test_project/DSSfiles/Linecodes.dss
New Linecode.1p_oh_al_2/0_rucina_2 nphases=2 normamps=115.0 emergamps=600.0 rmatrix=(0.7166333333333332 0.28753333333333336 | 0.28753333333333336 0.7166333333333332) xmatrix=(0.28883333333333333 0.1932333333333333 | 0.1932333333333333 0.28883333333333333) cmatrix=(39.3595 -19.342100000000002 | -19.342100000000002 39.3595)

New Linecode.1p_oh_al_4/0_zuzara_2 nphases=2 normamps=115.0 emergamps=600.0 rmatrix=(0.4728 0.20209999999999997 | 0.20209999999999997 0.4728) xmatrix=(0.21353333333333335 0.12473333333333335 | 0.12473333333333335 0.21353333333333335) cmatrix=(41.3578 -20.447400000000002 | -20.447400000000002 41.3578)

New Linecode.1p_oh_al_4_periwinkle_2 nphases=2 normamps=115.0 emergamps=600.0 rmatrix=(1.7609666666666666 0.3959666666666668 | 0.3959666666666668 1.7609666666666666) xmatrix=(0.6698333333333334 0.5686333333333333 | 0.5686333333333333 0.6698333333333334) cmatrix=(36.92503333333334 -17.558966666666667 | -17.558966666666667 36.92503333333334)

New Linecode.1p_ug_al_1/0_brenau_2 nphases=2 normamps=205.0 emergamps=600.0 rmatrix=(0.9149 0.3744 | 0.3744 0.9149) xmatrix=(0.4972667 0.3969667 | 0.3969667 0.4972667) cmatrix=(36.4998 -16.313099999999995 | -16.313099999999995 36.4998)

New Linecode.1p_ug_al_2/0_converse_2 nphases=2 normamps=233.0 emergamps=600.0 rmatrix=(0.7793333 0.3503333 | 0.3503333 0.7793333) xmatrix=(0.4209333 0.3231333 | 0.3231333 0.4209333) cmatrix=(37.42527 -17.11183 | -17.11183 37.42527)

New Linecode.1p_ug_al_4/0_sweetbriar_2 nphases=2 normamps=301.0 emergamps=600.0 rmatrix=(0.5462333 0.2755333 | 0.2755333 0.5462333) xmatrix=(0.2976 0.2043 | 0.2043 0.2976) cmatrix=(39.3278 -18.6046 | -18.6046 39.3278)

New Linecode.1p_ug_al_1 nphases=1 normamps=205.0 emergamps=600.0 rmatrix=(0.5993) xmatrix=(0.9339) cmatrix=(160.296)

New Linecode.1p_oh_al_aac_#2_iris_1 nphases=1 normamps=170.0 emergamps=600.0 rmatrix=(1.0396) xmatrix=(0.7735) cmatrix=(7.60469)

New Linecode.3p_oh_al_aac_4/0_oxlip_3 nphases=3 normamps=350.0 emergamps=600.0 rmatrix=(0.3618667 0.08866667 0.08866667 | 0.08866667 0.3618667 0.08866667 | 0.08866667 0.08866667 0.3618667) xmatrix=(0.6507333 0.2225333 0.2225333 | 0.2225333 0.6507333 0.2225333 | 0.2225333 0.2225333 0.6507333) cmatrix=(7.346 -3.1250999999999998 -3.1250999999999998 | -3.1250999999999998 7.346 -3.1250999999999998 | -3.1250999999999998 -3.1250999999999998 7.346)

New Linecode.3p_ug_al_3 nphases=3 normamps=295.0 emergamps=600.0 rmatrix=(0.3289333 0.05923333 0.05923333 | 0.05923333 0.3289333 0.05923333 | 0.05923333 0.05923333 0.3289333) xmatrix=(0.9076 0.6647 0.6647 | 0.6647 0.9076 0.6647 | 0.6647 0.6647 0.9076) cmatrix=(120.289 -59.026 -59.026 | -59.026 120.289 -59.026 | -59.026 -59.026 120.289)

New Linecode.3p_ug_al_350kcmil_3 nphases=3 normamps=370.0 emergamps=600.0 rmatrix=(0.3388667 0.1744667 0.1744667 | 0.1744667 0.3388667 0.1744667 | 0.1744667 0.1744667 0.3388667) xmatrix=(0.5126 0.2912 0.2912 | 0.2912 0.5126 0.2912 | 0.2912 0.2912 0.5126) cmatrix=(164.36499999999998 -81.63499999999999 -81.63499999999999 | -81.63499999999999 164.36499999999998 -81.63499999999999 | -81.63499999999999 -81.63499999999999 164.36499999999998)

New Linecode.3p_oh_al_acsr_1033kcmil_curlew_3 nphases=3 normamps=960.0 emergamps=600.0 rmatrix=(0.0871 0.0296 0.0296 | 0.0296 0.0871 0.0296 | 0.0296 0.0296 0.0871) xmatrix=(0.5382333 0.1839333 0.1839333 | 0.1839333 0.5382333 0.1839333 | 0.1839333 0.1839333 0.5382333) cmatrix=(8.6745 -3.8842 -3.8842 | -3.8842 8.6745 -3.8842 | -3.8842 -3.8842 8.6745)

New Linecode.padswitch_1 nphases=1 normamps=205.0 emergamps=600.0 rmatrix=(0.001) xmatrix=(0.001) cmatrix=(3.608924)

New Linecode.padswitch_1_4 nphases=1 normamps=170.0 emergamps=600.0 rmatrix=(0.001) xmatrix=(0.001) cmatrix=(3.608924)

New Linecode.padswitch_1_2 nphases=1 normamps=115.0 emergamps=600.0 rmatrix=(0.001) xmatrix=(0.001) cmatrix=(3.608924)

New Linecode.padswitch_1_3 nphases=1 normamps=233.0 emergamps=600.0 rmatrix=(0.001) xmatrix=(0.001) cmatrix=(3.608924)

New Linecode.padswitch_1_1 nphases=1 normamps=301.0 emergamps=600.0 rmatrix=(0.001) xmatrix=(0.001) cmatrix=(3.608924)

New Linecode.padswitch_3 nphases=3 normamps=295.0 emergamps=600.0 rmatrix=(0.001 0.0 0.0 | 0.0 0.001 0.0 | 0.0 0.0 0.001) xmatrix=(0.001 0.0 0.0 | 0.0 0.001 0.0 | 0.0 0.0 0.001) cmatrix=(3.499563 -0.1093613 -0.1093613 | -0.1093613 3.499563 -0.1093613 | -0.1093613 -0.1093613 3.499563)

New Linecode.padswitch_3_1 nphases=3 normamps=350.0 emergamps=600.0 rmatrix=(0.001 0.0 0.0 | 0.0 0.001 0.0 | 0.0 0.0 0.001) xmatrix=(0.001 0.0 0.0 | 0.0 0.001 0.0 | 0.0 0.0 0.001) cmatrix=(3.499563 -0.1093613 -0.1093613 | -0.1093613 3.499563 -0.1093613 | -0.1093613 -0.1093613 3.499563)

New Linecode.padswitch_3_3 nphases=3 normamps=205.0 emergamps=600.0 rmatrix=(0.001 0.0 0.0 | 0.0 0.001 0.0 | 0.0 0.0 0.001) xmatrix=(0.001 0.0 0.0 | 0.0 0.001 0.0 | 0.0 0.0 0.001) cmatrix=(3.499563 -0.1093613 -0.1093613 | -0.1093613 3.499563 -0.1093613 | -0.1093613 -0.1093613 3.499563)

New Linecode.padswitch_3_7 nphases=3 normamps=370.0 emergamps=600.0 rmatrix=(0.001 0.0 0.0 | 0.0 0.001 0.0 | 0.0 0.0 0.001) xmatrix=(0.001 0.0 0.0 | 0.0 0.001 0.0 | 0.0 0.0 0.001) cmatrix=(3.499563 -0.1093613 -0.1093613 | -0.1093613 3.499563 -0.1093613 | -0.1093613 -0.1093613 3.499563)

New Linecode.padswitch_3_5 nphases=3 normamps=301.0 emergamps=600.0 rmatrix=(0.001 0.0 0.0 | 0.0 0.001 0.0 | 0.0 0.0 0.001) xmatrix=(0.001 0.0 0.0 | 0.0 0.001 0.0 | 0.0 0.0 0.001) cmatrix=(3.499563 -0.1093613 -0.1093613 | -0.1093613 3.499563 -0.1093613 | -0.1093613 -0.1093613 3.499563)

New Linecode.padswitch_3_4 nphases=3 normamps=115.0 emergamps=600.0 rmatrix=(0.001 0.0 0.0 | 0.0 0.001 0.0 | 0.0 0.0 0.001) xmatrix=(0.001 0.0 0.0 | 0.0 0.001 0.0 | 0.0 0.0 0.001) cmatrix=(3.499563 -0.1093613 -0.1093613 | -0.1093613 3.499563 -0.1093613 | -0.1093613 -0.1093613 3.499563)

New Linecode.padswitch_3_6 nphases=3 normamps=233.0 emergamps=600.0 rmatrix=(0.001 0.0 0.0 | 0.0 0.001 0.0 | 0.0 0.0 0.001) xmatrix=(0.001 0.0 0.0 | 0.0 0.001 0.0 | 0.0 0.0 0.001) cmatrix=(3.499563 -0.1093613 -0.1093613 | -0.1093613 3.499563 -0.1093613 | -0.1093613 -0.1093613 3.499563)

New Linecode.elbswitch_3_3 nphases=3 normamps=960.0 emergamps=600.0 rmatrix=(0.001 0.0 0.0 | 0.0 0.001 0.0 | 0.0 0.0 0.001) xmatrix=(0.001 0.0 0.0 | 0.0 0.001 0.0 | 0.0 0.0 0.001) cmatrix=(3.499563 -0.1093613 -0.1093613 | -0.1093613 3.499563 -0.1093613 | -0.1093613 -0.1093613 3.499563)

New Linecode.fuse_1 nphases=1 normamps=350.0 emergamps=600.0 rmatrix=(0.001) xmatrix=(0.001) cmatrix=(3.4)

New Linecode.fuse_1_1 nphases=1 normamps=170.0 emergamps=600.0 rmatrix=(0.001) xmatrix=(0.001) cmatrix=(3.4)

New Linecode.fuse_1_2 nphases=1 normamps=115.0 emergamps=600.0 rmatrix=(0.001) xmatrix=(0.001) cmatrix=(3.4)

New Linecode.fuse_1_3 nphases=1 normamps=205.0 emergamps=600.0 rmatrix=(0.001) xmatrix=(0.001) cmatrix=(3.4)

New Linecode.fuse_1_6 nphases=1 normamps=295.0 emergamps=600.0 rmatrix=(0.001) xmatrix=(0.001) cmatrix=(3.4)

New Linecode.fuse_1_4 nphases=1 normamps=370.0 emergamps=600.0 rmatrix=(0.001) xmatrix=(0.001) cmatrix=(3.4)

New Linecode.fuse_1_5 nphases=1 normamps=301.0 emergamps=600.0 rmatrix=(0.001) xmatrix=(0.001) cmatrix=(3.4)

New Linecode.goab_disswitch_3_1 nphases=3 normamps=350.0 emergamps=600.0 rmatrix=(0.001 0.0 0.0 | 0.0 0.001 0.0 | 0.0 0.0 0.001) xmatrix=(0.001 0.0 0.0 | 0.0 0.001 0.0 | 0.0 0.0 0.001) cmatrix=(3.499563 -0.1093613 -0.1093613 | -0.1093613 3.499563 -0.1093613 | -0.1093613 -0.1093613 3.499563)

New Linecode.recloser_3_1 nphases=3 normamps=350.0 emergamps=600.0 rmatrix=(0.001 0.0 0.0 | 0.0 0.001 0.0 | 0.0 0.0 0.001) xmatrix=(0.001 0.0 0.0 | 0.0 0.001 0.0 | 0.0 0.0 0.001) cmatrix=(3.499563 -0.1093613 -0.1093613 | -0.1093613 3.499563 -0.1093613 | -0.1093613 -0.1093613 3.499563)

New Linecode.goab_disswitch_3 nphases=3 normamps=115.0 emergamps=600.0 rmatrix=(0.001 0.0 0.0 | 0.0 0.001 0.0 | 0.0 0.0 0.001) xmatrix=(0.001 0.0 0.0 | 0.0 0.001 0.0 | 0.0 0.0 0.001) cmatrix=(3.499563 -0.1093613 -0.1093613 | -0.1093613 3.499563 -0.1093613 | -0.1093613 -0.1093613 3.499563)

New Linecode.fuse_add_3 nphases=3 normamps=200 emergamps=200 rmatrix=(0.001 0.0 0.0 | 0.0 0.001 0.0 | 0.0 0.0 0.001) xmatrix=(0.001 0.0 0.0 | 0.0 0.001 0.0 | 0.0 0.0 0.001) cmatrix=(3.499563 -0.1093613 -0.1093613 | -0.1093613 3.499563 -0.1093613 | -0.1093613 -0.1093613 3.499563)

New Linecode.fuse_add_2 nphases=2 normamps=200 emergamps=200 rmatrix=(0.001 0.0 | 0.0 0.001) xmatrix=(0.001 0.0 | 0.0 0.001) cmatrix=(3.499563 -0.1093613 | -0.1093613 3.499563)

New Linecode.fuse_add_1 nphases=1 normamps=200 emergamps=200 rmatrix=(0.001 ) xmatrix=(0.001 ) cmatrix=(3.4 )

New Linecode.recloser_add_3 nphases=3 normamps=200 emergamps=200 rmatrix=(0.001 0.0 0.0 | 0.0 0.001 0.0 | 0.0 0.0 0.001) xmatrix=(0.001 0.0 0.0 | 0.0 0.001 0.0 | 0.0 0.0 0.001) cmatrix=(3.499563 -0.1093613 -0.1093613 | -0.1093613 3.499563 -0.1093613 | -0.1093613 -0.1093613 3.499563)

New Linecode.recloser_add_2 nphases=2 normamps=200 emergamps=200 rmatrix=(0.001 0.0 | 0.0 0.001) xmatrix=(0.001 0.0 | 0.0 0.001) cmatrix=(3.499563 -0.1093613 | -0.1093613 3.499563)

New Linecode.recloser_add_1 nphases=1 normamps=200 emergamps=200 rmatrix=(0.001 ) xmatrix=(0.001 ) cmatrix=(3.4 )

