tests/data/dynamic_voltage_support_test_project/DSSfiles/Lines.dss
New Line.l(r:p2rdt12626lv-p2rlv29460) length=0.00829671 units=km bus1=p2rdt12626lv.1.2 bus2=p2rlv29460.1.2 switch=False enabled=True phases=2 linecode=1p_oh_al_2/0_rucina_2

New Line.l(r:p2rdm29057-p2rlv29459) length=0.0147393 units=km bus1=p2rdm29057.1.2 bus2=p2rlv29459.1.2 switch=False enabled=True phases=2 linecode=1p_oh_al_2/0_rucina_2

New Line.l(r:p2rdm29056-p2rlv29458) length=0.015629 units=km bus1=p2rdm29056.1.2 bus2=p2rlv29458.1.2 switch=False enabled=True phases=2 linecode=1p_oh_al_2/0_rucina_2

New Line.l(r:p2rdm29056-p2rdm29057) length=0.038703 units=km bus1=p2rdm29057.1.2 bus2=p2rdm29056.1.2 switch=False enabled=True phases=2 linecode=1p_oh_al_4/0_zuzara_2

New Line.l(r:p2rdm29057-p2rdt12626lv) length=0.038693 units=km bus1=p2rdt12626lv.1.2 bus2=p2rdm29057.1.2 switch=False enabled=True phases=2 linecode=1p_oh_al_4/0_zuzara_2

New Line.l(r:p2rdm29059-p2rlv29461) length=0.00538535 units=km bus1=p2rdm29059.1.2 bus2=p2rlv29461.1.2 switch=False enabled=True phases=2 linecode=1p_oh_al_2/0_rucina_2

New Line.l(r:p2rdm29059-p2rlv29462) length=0.028347300000000002 units=km bus1=p2rdm29059.1.2 bus2=p2rlv29462.1.2 switch=False enabled=True phases=2 linecode=1p_oh_al_4/0_zuzara_2

New Line.l(r:p2rdm29062-p2rlv29464) length=0.0498019 units=km bus1=p2rdm29062.1.2 bus2=p2rlv29464.1.2 switch=False enabled=True phases=2 linecode=1p_oh_al_4/0_zuzara_2

New Line.l(r:p2rdm29061-p2rlv29463) length=0.0083569 units=km bus1=p2rdm29061.1.2 bus2=p2rlv29463.1.2 switch=False enabled=True phases=2 linecode=1p_oh_al_2/0_rucina_2

New Line.l(r:p2rdm29061-p2rdm29062) length=0.0181422 units=km bus1=p2rdm29062.1.2 bus2=p2rdm29061.1.2 switch=False enabled=True phases=2 linecode=1p_oh_al_2/0_rucina_2

New Line.l(r:p2rdm29059-p2rdm29062) length=0.0181422 units=km bus1=p2rdm29059.1.2 bus2=p2rdm29062.1.2 switch=False enabled=True phases=2 linecode=1p_oh_al_2/0_rucina_2

New Line.l(r:p2rdm29059-p2rdt12626lv) length=0.0193515 units=km bus1=p2rdt12626lv.1.2 bus2=p2rdm29059.1.2 switch=False enabled=True phases=2 linecode=1p_oh_al_2/0_rucina_2

New Line.l(r:p2rdm29063-p2rlv29465) length=0.0362083 units=km bus1=p2rdm29063.1.2 bus2=p2rlv29465.1.2 switch=False enabled=True phases=2 linecode=1p_oh_al_4/0_zuzara_2

New Line.l(r:p2rdm29063-p2rdt12627lv) length=0.0181422 units=km bus1=p2rdt12627lv.1.2 bus2=p2rdm29063.1.2 switch=False enabled=True phases=2 linecode=1p_oh_al_2/0_rucina_2

New Line.l(r:p2rdm29064-p2rlv29466) length=0.0155733 units=km bus1=p2rdm29064.1.2 bus2=p2rlv29466.1.2 switch=False enabled=True phases=2 linecode=1p_oh_al_2/0_rucina_2

New Line.l(r:p2rdm29064-p2rdt12627lv) length=0.0181422 units=km bus1=p2rdt12627lv.1.2 bus2=p2rdm29064.1.2 switch=False enabled=True phases=2 linecode=1p_oh_al_2/0_rucina_2

New Line.l(r:p2rdm29073-p2rlv29475) length=0.0111396 units=km bus1=p2rdm29073.1.2 bus2=p2rlv29475.1.2 switch=False enabled=True phases=2 linecode=1p_oh_al_2/0_rucina_2

New Line.l(r:p2rdm29073-p2rlv29476) length=0.0171644 units=km bus1=p2rdm29073.1.2 bus2=p2rlv29476.1.2 switch=False enabled=True phases=2 linecode=1p_oh_al_2/0_rucina_2

New Line.l(r:p2rdm29073-p2rdt12635lv) length=0.01925 units=km bus1=p2rdt12635lv.1.2 bus2=p2rdm29073.1.2 switch=False enabled=True phases=2 linecode=1p_oh_al_2/0_rucina_2

New Line.l(r:p2rdm29075-p2rlv29477) length=0.04687390000000001 units=km bus1=p2rdm29075.1.2 bus2=p2rlv29477.1.2 switch=False enabled=True phases=2 linecode=1p_oh_al_4/0_zuzara_2

New Line.l(r:p2rdm29075-p2rdt12635lv) length=0.057749600000000005 units=km bus1=p2rdt12635lv.1.2 bus2=p2rdm29075.1.2 switch=False enabled=True phases=2 linecode=1p_oh_al_4/0_zuzara_2

New Line.l(r:p2rdm29076-p2rlv29478) length=0.0127944 units=km bus1=p2rdm29076.1.2 bus2=p2rlv29478.1.2 switch=False enabled=True phases=2 linecode=1p_oh_al_2/0_rucina_2

New Line.l(r:p2rdm29076-p2rdt12636lv) length=0.01925 units=km bus1=p2rdt12636lv.1.2 bus2=p2rdm29076.1.2 switch=False enabled=True phases=2 linecode=1p_oh_al_2/0_rucina_2

New Line.l(r:p2rdm29077-p2rlv30419) length=0.0130899 units=km bus1=p2rdm29077.1.2 bus2=p2rlv30419.1.2 switch=False enabled=True phases=2 linecode=1p_oh_al_2/0_rucina_2

New Line.l(r:p2rdm29077-p2rdt12636lv) length=0.0192497 units=km bus1=p2rdt12636lv.1.2 bus2=p2rdm29077.1.2 switch=False enabled=True phases=2 linecode=1p_oh_al_2/0_rucina_2

New Line.l(r:p2rdt12637lv-p2rlv29479) length=0.0664667 units=km bus1=p2rdt12637lv.1.2 bus2=p2rlv29479.1.2 switch=False enabled=True phases=2 linecode=1p_oh_al_4/0_zuzara_2

New Line.l(r:p2rdt12637lv-p2rlv29480) length=0.08285110000000001 units=km bus1=p2rdt12637lv.1.2 bus2=p2rlv29480.1.2 switch=False enabled=True phases=2 linecode=1p_oh_al_4/0_zuzara_2

New Line.l(r:p2rdm29080-p2rlv29492) length=0.06161040000000001 units=km bus1=p2rdm29080.1.2 bus2=p2rlv29492.1.2 switch=False enabled=True phases=2 linecode=1p_oh_al_4/0_zuzara_2

New Line.l(r:p2rdm29080-p2rdt12637lv) length=0.0192397 units=km bus1=p2rdt12637lv.1.2 bus2=p2rdm29080.1.2 switch=False enabled=True phases=2 linecode=1p_oh_al_2/0_rucina_2

New Line.l(r:p2rdt12638lv-p2rlv29481) length=0.018078700000000003 units=km bus1=p2rdt12638lv.1.2 bus2=p2rlv29481.1.2 switch=False enabled=True phases=2 linecode=1p_oh_al_2/0_rucina_2

New Line.l(r:p2rdt12638lv-p2rlv29482) length=0.0178331 units=km bus1=p2rdt12638lv.1.2 bus2=p2rlv29482.1.2 switch=False enabled=True phases=2 linecode=1p_oh_al_2/0_rucina_2

New Line.l(r:p2rdt12638lv-p2rlv29483) length=0.0236685 units=km bus1=p2rdt12638lv.1.2 bus2=p2rlv29483.1.2 switch=False enabled=True phases=2 linecode=1p_oh_al_2/0_rucina_2

New Line.l(r:p2rdt12638lv-p2rlv29485) length=0.030558000000000002 units=km bus1=p2rdt12638lv.1.2 bus2=p2rlv29485.1.2 switch=False enabled=True phases=2 linecode=1p_oh_al_4/0_zuzara_2

New Line.l(r:p2rdt12638lv-p2rlv29491) length=0.0449728 units=km bus1=p2rdt12638lv.1.2 bus2=p2rlv29491.1.2 switch=False enabled=True phases=2 linecode=1p_oh_al_4/0_zuzara_2

New Line.l(r:p2rdt12639lv-p2rlv29484) length=0.0301407 units=km bus1=p2rdt12639lv.1.2 bus2=p2rlv29484.1.2 switch=False enabled=True phases=2 linecode=1p_oh_al_4/0_zuzara_2

New Line.l(r:p2rdt12639lv-p2rlv29486) length=0.0165732 units=km bus1=p2rdt12639lv.1.2 bus2=p2rlv29486.1.2 switch=False enabled=True phases=2 linecode=1p_oh_al_2/0_rucina_2

New Line.l(r:p2rdt12639lv-p2rlv29487) length=0.0209919 units=km bus1=p2rdt12639lv.1.2 bus2=p2rlv29487.1.2 switch=False enabled=True phases=2 linecode=1p_oh_al_2/0_rucina_2

New Line.l(r:p2rdt12639lv-p2rlv29488) length=0.009101850000000002 units=km bus1=p2rdt12639lv.1.2 bus2=p2rlv29488.1.2 switch=False enabled=True phases=2 linecode=1p_oh_al_2/0_rucina_2

New Line.l(r:p2rdt12639lv-p2rlv29489) length=0.0115259 units=km bus1=p2rdt12639lv.1.2 bus2=p2rlv29489.1.2 switch=False enabled=True phases=2 linecode=1p_oh_al_2/0_rucina_2

New Line.l(r:p2rdt12640lv-p2rlv29493) length=0.0232044 units=km bus1=p2rdt12640lv.1.2 bus2=p2rlv29493.1.2 switch=False enabled=True phases=2 linecode=1p_oh_al_2/0_rucina_2

New Line.l(r:p2rdm29092-p2rlv29494) length=0.0126597 units=km bus1=p2rdm29092.1.2 bus2=p2rlv29494.1.2 switch=False enabled=True phases=2 linecode=1p_oh_al_2/0_rucina_2

New Line.l(r:p2rdm29092-p2rdt12641lv) length=0.0186551 units=km bus1=p2rdt12641lv.1.2 bus2=p2rdm29092.1.2 switch=False enabled=True phases=2 linecode=1p_oh_al_2/0_rucina_2

New Line.l(r:p2rdm29093-p2rlv30432) length=0.0429827 units=km bus1=p2rdm29093.1.2 bus2=p2rlv30432.1.2 switch=False enabled=True phases=2 linecode=1p_oh_al_4/0_zuzara_2

New Line.l(r:p2rdm29093-p2rdt12641lv) length=0.0186551 units=km bus1=p2rdt12641lv.1.2 bus2=p2rdm29093.1.2 switch=False enabled=True phases=2 linecode=1p_oh_al_2/0_rucina_2

New Line.l(r:p2rdt12642lv-p2rlv29495) length=0.0144053 units=km bus1=p2rdt12642lv.1.2 bus2=p2rlv29495.1.2 switch=False enabled=True phases=2 linecode=1p_oh_al_2/0_rucina_2

New Line.l(r:p2rdt12643lv-p2rlv30564) length=0.0177601 units=km bus1=p2rdt12643lv.1.2 bus2=p2rlv30564.1.2 switch=False enabled=True phases=2 linecode=1p_oh_al_2/0_rucina_2

New Line.l(r:p2rdm29095-p2rlv29496) length=0.0115581 units=km bus1=p2rdm29095.1.2 bus2=p2rlv29496.1.2 switch=False enabled=True phases=2 linecode=1p_oh_al_2/0_rucina_2

New Line.l(r:p2rdm29095-p2rdt12643lv) length=0.0572218 units=km bus1=p2rdt12643lv.1.2 bus2=p2rdm29095.1.2 switch=False enabled=True phases=2 linecode=1p_oh_al_4/0_zuzara_2

New Line.l(r:p2rdm29096-p2rlv29497) length=0.0127892 units=km bus1=p2rdm29096.1.2 bus2=p2rlv29497.1.2 switch=False enabled=True phases=2 linecode=1p_oh_al_2/0_rucina_2

New Line.l(r:p2rdm29096-p2rdt12643lv) length=0.057222 units=km bus1=p2rdt12643lv.1.2 bus2=p2rdm29096.1.2 switch=False enabled=True phases=2 linecode=1p_oh_al_4/0_zuzara_2

New Line.l(r:p2rdt12654lv-p2rlv29510) length=0.030776800000000003 units=km bus1=p2rdt12654lv.1.2 bus2=p2rlv29510.1.2 switch=False enabled=True phases=2 linecode=1p_oh_al_4/0_zuzara_2

New Line.l(r:p2rdt12655lv-p2rlv29511) length=0.022482200000000004 units=km bus1=p2rdt12655lv.1.2 bus2=p2rlv29511.1.2 switch=False enabled=True phases=2 linecode=1p_oh_al_2/0_rucina_2

New Line.l(r:p2rdt12656lv-p2rlv29513) length=0.0240134 units=km bus1=p2rdt12656lv.1.2 bus2=p2rlv29513.1.2 switch=False enabled=True phases=2 linecode=1p_oh_al_2/0_rucina_2

New Line.l(r:p2rdm29113-p2rlv29512) length=0.018154400000000005 units=km bus1=p2rdm29113.1.2 bus2=p2rlv29512.1.2 switch=False enabled=True phases=2 linecode=1p_oh_al_2/0_rucina_2

New Line.l(r:p2rdm29113-p2rdt12656lv) length=0.0227157 units=km bus1=p2rdt12656lv.1.2 bus2=p2rdm29113.1.2 switch=False enabled=True phases=2 linecode=1p_oh_al_2/0_rucina_2

New Line.l(r:p2rdm29115-p2rlv29514) length=0.023016400000000003 units=km bus1=p2rdm29115.1.2 bus2=p2rlv29514.1.2 switch=False enabled=True phases=2 linecode=1p_oh_al_2/0_rucina_2

New Line.l(r:p2rdm29115-p2rdt12656lv) length=0.0139109 units=km bus1=p2rdt12656lv.1.2 bus2=p2rdm29115.1.2 switch=False enabled=True phases=2 linecode=1p_oh_al_2/0_rucina_2

New Line.l(r:p2rdt12657lv-p2rlv29515) length=0.017105900000000004 units=km bus1=p2rdt12657lv.1.2 bus2=p2rlv29515.1.2 switch=False enabled=True phases=2 linecode=1p_oh_al_2/0_rucina_2

New Line.l(r:p2rdm29118-p2rlv29517) length=0.0153125 units=km bus1=p2rdm29118.1.2 bus2=p2rlv29517.1.2 switch=False enabled=True phases=2 linecode=1p_oh_al_2/0_rucina_2

New Line.l(r:p2rdm29117-p2rlv29516) length=0.0161283 units=km bus1=p2rdm29117.1.2 bus2=p2rlv29516.1.2 switch=False enabled=True phases=2 linecode=1p_oh_al_2/0_rucina_2

New Line.l(r:p2rdm29117-p2rdm29118) length=0.05666790000000001 units=km bus1=p2rdm29118.1.2 bus2=p2rdm29117.1.2 switch=False enabled=True phases=2 linecode=1p_oh_al_4/0_zuzara_2

New Line.l(r:p2rdm29118-p2rdt12658lv) length=0.0366131 units=km bus1=p2rdt12658lv.1.2 bus2=p2rdm29118.1.2 switch=False enabled=True phases=2 linecode=1p_oh_al_4/0_zuzara_2

New Line.l(r:p2rdm29119-p2rlv29518) length=0.0177609 units=km bus1=p2rdm29119.1.2 bus2=p2rlv29518.1.2 switch=False enabled=True phases=2 linecode=1p_oh_al_2/0_rucina_2

New Line.l(r:p2rdm29119-p2rlv29519) length=0.0170494 units=km bus1=p2rdm29119.1.2 bus2=p2rlv29519.1.2 switch=False enabled=True phases=2 linecode=1p_oh_al_2/0_rucina_2

New Line.l(r:p2rdm29121-p2rlv29520) length=0.0199831 units=km bus1=p2rdm29121.1.2 bus2=p2rlv29520.1.2 switch=False enabled=True phases=2 linecode=1p_oh_al_2/0_rucina_2

New Line.l(r:p2rdm29122-p2rlv29521) length=0.0423016 units=km bus1=p2rdm29122.1.2 bus2=p2rlv29521.1.2 switch=False enabled=True phases=2 linecode=1p_oh_al_4/0_zuzara_2

New Line.l(r:p2rdm29121-p2rdm29122) length=0.0149028 units=km bus1=p2rdm29121.1.2 bus2=p2rdm29122.1.2 switch=False enabled=True phases=2 linecode=1p_oh_al_2/0_rucina_2

New Line.l(r:p2rdm29119-p2rdm29121) length=0.0282218 units=km bus1=p2rdm29119.1.2 bus2=p2rdm29121.1.2 switch=False enabled=True phases=2 linecode=1p_oh_al_4/0_zuzara_2

New Line.l(r:p2rdm29119-p2rdt12658lv) length=0.013309 units=km bus1=p2rdt12658lv.1.2 bus2=p2rdm29119.1.2 switch=False enabled=True phases=2 linecode=1p_oh_al_2/0_rucina_2

New Line.l(r:p2rdt12659lv-p2rlv29522) length=0.0125054 units=km bus1=p2rdt12659lv.1.2 bus2=p2rlv29522.1.2 switch=False enabled=True phases=2 linecode=1p_oh_al_2/0_rucina_2

New Line.l(r:p2rdt12660lv-p2rlv29523) length=0.0775669 units=km bus1=p2rdt12660lv.1.2 bus2=p2rlv29523.1.2 switch=False enabled=True phases=2 linecode=1p_oh_al_4/0_zuzara_2

New Line.l(r:p2rdt12661lv-p2rlv29524) length=0.001 units=km bus1=p2rdt12661lv.1.2 bus2=p2rlv29524.1.2 switch=False enabled=True phases=2 linecode=1p_oh_al_4_periwinkle_2

New Line.l(r:p2rdt12662lv-p2rlv29525) length=0.013279000000000001 units=km bus1=p2rdt12662lv.1.2 bus2=p2rlv29525.1.2 switch=False enabled=True phases=2 linecode=1p_oh_al_2/0_rucina_2

New Line.l(r:p2rdt12663lv-p2rlv29526) length=0.00494009 units=km bus1=p2rdt12663lv.1.2 bus2=p2rlv29526.1.2 switch=False enabled=True phases=2 linecode=1p_oh_al_2/0_rucina_2

New Line.l(r:p2rdt12664lv-p2rlv29527) length=0.001 units=km bus1=p2rdt12664lv.1.2 bus2=p2rlv29527.1.2 switch=False enabled=True phases=2 linecode=1p_oh_al_4_periwinkle_2

New Line.l(r:p2rdt12665lv-p2rlv29528) length=0.001 units=km bus1=p2rdt12665lv.1.2 bus2=p2rlv29528.1.2 switch=False enabled=True phases=2 linecode=1p_oh_al_4_periwinkle_2

New Line.l(r:p2rdt12677lv-p2rlv29544) length=0.0411096 units=km bus1=p2rdt12677lv.1.2 bus2=p2rlv29544.1.2 switch=False enabled=True phases=2 linecode=1p_oh_al_4/0_zuzara_2

New Line.l(r:p2rdt12703lv-p2rlv29732) length=0.0038058 units=km bus1=p2rdt12703lv.1.2 bus2=p2rlv29732.1.2 switch=False enabled=True phases=2 linecode=1p_oh_al_4_periwinkle_2

New Line.l(r:p2rdm29194-p2rlv29591) length=0.00360472 units=km bus1=p2rdm29194.1.2 bus2=p2rlv29591.1.2 switch=False enabled=True phases=2 linecode=1p_oh_al_4_periwinkle_2

New Line.l(r:p2rdm29195-p2rlv29596) length=0.0246431 units=km bus1=p2rdm29195.1.2 bus2=p2rlv29596.1.2 switch=False enabled=True phases=2 linecode=1p_oh_al_2/0_rucina_2

New Line.l(r:p2rdm29194-p2rdm29195) length=0.0550248 units=km bus1=p2rdm29194.1.2 bus2=p2rdm29195.1.2 switch=False enabled=True phases=2 linecode=1p_oh_al_4/0_zuzara_2

New Line.l(r:p2rdm29194-p2rdt12703lv) length=0.018481200000000003 units=km bus1=p2rdt12703lv.1.2 bus2=p2rdm29194.1.2 switch=False enabled=True phases=2 linecode=1p_oh_al_2/0_rucina_2

New Line.l(r:p2rdm29198-p2rlv29730) length=0.00659267 units=km bus1=p2rdm29198.1.2 bus2=p2rlv29730.1.2 switch=False enabled=True phases=2 linecode=1p_oh_al_2/0_rucina_2

New Line.l(r:p2rdm29197-p2rlv29729) length=0.00435184 units=km bus1=p2rdm29197.1.2 bus2=p2rlv29729.1.2 switch=False enabled=True phases=2 linecode=1p_oh_al_2/0_rucina_2

New Line.l(r:p2rdm29196-p2rlv29727) length=0.00544648 units=km bus1=p2rdm29196.1.2 bus2=p2rlv29727.1.2 switch=False enabled=True phases=2 linecode=1p_oh_al_2/0_rucina_2

New Line.l(r:p2rdm29196-p2rdm29197) length=0.018481200000000003 units=km bus1=p2rdm29197.1.2 bus2=p2rdm29196.1.2 switch=False enabled=True phases=2 linecode=1p_oh_al_2/0_rucina_2

New Line.l(r:p2rdm29197-p2rdm29198) length=0.018481200000000003 units=km bus1=p2rdm29198.1.2 bus2=p2rdm29197.1.2 switch=False enabled=True phases=2 linecode=1p_oh_al_2/0_rucina_2

New Line.l(r:p2rdm29198-p2rdt12703lv) length=0.0184712 units=km bus1=p2rdt12703lv.1.2 bus2=p2rdm29198.1.2 switch=False enabled=True phases=2 linecode=1p_oh_al_2/0_rucina_2

New Line.l(r:p2rdt12704lv-p2rlv29592) length=0.0136386 units=km bus1=p2rdt12704lv.1.2 bus2=p2rlv29592.1.2 switch=False enabled=True phases=2 linecode=1p_oh_al_2/0_rucina_2

New Line.l(r:p2rdt12705lv-p2rlv29593) length=0.0368504 units=km bus1=p2rdt12705lv.1.2 bus2=p2rlv29593.1.2 switch=False enabled=True phases=2 linecode=1p_oh_al_4/0_zuzara_2

New Line.l(r:p2rdt12706lv-p2rlv29594) length=0.010263600000000001 units=km bus1=p2rdt12706lv.1.2 bus2=p2rlv29594.1.2 switch=False enabled=True phases=2 linecode=1p_oh_al_2/0_rucina_2

New Line.l(r:p2rdt12707lv-p2rlv29599) length=0.00739693 units=km bus1=p2rdt12707lv.1.2 bus2=p2rlv29599.1.2 switch=False enabled=True phases=2 linecode=1p_oh_al_2/0_rucina_2

New Line.l(r:p2rdt12707lv-p2rlv29603) length=0.035172300000000004 units=km bus1=p2rdt12707lv.1.2 bus2=p2rlv29603.1.2 switch=False enabled=True phases=2 linecode=1p_oh_al_4/0_zuzara_2

New Line.l(r:p2rdm29203-p2rlv29597) length=0.00766265 units=km bus1=p2rdm29203.1.2 bus2=p2rlv29597.1.2 switch=False enabled=True phases=2 linecode=1p_oh_al_2/0_rucina_2

New Line.l(r:p2rdm29203-p2rlv29598) length=0.00824052 units=km bus1=p2rdm29203.1.2 bus2=p2rlv29598.1.2 switch=False enabled=True phases=2 linecode=1p_oh_al_2/0_rucina_2

New Line.l(r:p2rdm29203-p2rdt12707lv) length=0.0250819 units=km bus1=p2rdt12707lv.1.2 bus2=p2rdm29203.1.2 switch=False enabled=True phases=2 linecode=1p_oh_al_2/0_rucina_2

New Line.l(r:p2rdm29206-p2rlv29600) length=0.00614033 units=km bus1=p2rdm29206.1.2 bus2=p2rlv29600.1.2 switch=False enabled=True phases=2 linecode=1p_oh_al_2/0_rucina_2

New Line.l(r:p2rdm29207-p2rlv29601) length=0.00656427 units=km bus1=p2rdm29207.1.2 bus2=p2rlv29601.1.2 switch=False enabled=True phases=2 linecode=1p_oh_al_2/0_rucina_2

New Line.l(r:p2rdm29208-p2rlv29602) length=0.00932765 units=km bus1=p2rdm29208.1.2 bus2=p2rlv29602.1.2 switch=False enabled=True phases=2 linecode=1p_oh_al_2/0_rucina_2

New Line.l(r:p2rdm29207-p2rdm29208) length=0.0119981 units=km bus1=p2rdm29207.1.2 bus2=p2rdm29208.1.2 switch=False enabled=True phases=2 linecode=1p_oh_al_2/0_rucina_2

New Line.l(r:p2rdm29206-p2rdm29207) length=0.00992477 units=km bus1=p2rdm29206.1.2 bus2=p2rdm29207.1.2 switch=False enabled=True phases=2 linecode=1p_oh_al_2/0_rucina_2

New Line.l(r:p2rdm29206-p2rdt12707lv) length=0.0106419 units=km bus1=p2rdt12707lv.1.2 bus2=p2rdm29206.1.2 switch=False enabled=True phases=2 linecode=1p_oh_al_2/0_rucina_2

New Line.l(r:p2rdt12709lv-p2rlv29606) length=0.0328254 units=km bus1=p2rdt12709lv.1.2 bus2=p2rlv29606.1.2 switch=False enabled=True phases=2 linecode=1p_oh_al_4/0_zuzara_2

New Line.l(r:p2rdt12711lv-p2rlv29608) length=0.008673640000000002 units=km bus1=p2rdt12711lv.1.2 bus2=p2rlv29608.1.2 switch=False enabled=True phases=2 linecode=1p_oh_al_2/0_rucina_2

New Line.l(r:p2rdm29216-p2rlv29610) length=0.0381671 units=km bus1=p2rdm29216.1.2 bus2=p2rlv29610.1.2 switch=False enabled=True phases=2 linecode=1p_oh_al_4/0_zuzara_2

New Line.l(r:p2rdm29216-p2rdt12713lv) length=0.015363800000000002 units=km bus1=p2rdt12713lv.1.2 bus2=p2rdm29216.1.2 switch=False enabled=True phases=2 linecode=1p_oh_al_2/0_rucina_2

New Line.l(r:p2rdm29217-p2rlv31120) length=0.00878171 units=km bus1=p2rdm29217.1.2 bus2=p2rlv31120.1.2 switch=False enabled=True phases=2 linecode=1p_oh_al_2/0_rucina_2

New Line.l(r:p2rdm29217-p2rdt12713lv) length=0.0119907 units=km bus1=p2rdt12713lv.1.2 bus2=p2rdm29217.1.2 switch=False enabled=True phases=2 linecode=1p_oh_al_2/0_rucina_2

New Line.l(r:p2rdt12714lv-p2rlv29611) length=0.0780075 units=km bus1=p2rdt12714lv.1.2 bus2=p2rlv29611.1.2 switch=False enabled=True phases=2 linecode=1p_oh_al_4/0_zuzara_2

New Line.l(r:p2rdt12715lv-p2rlv29612) length=0.0478523 units=km bus1=p2rdt12715lv.1.2 bus2=p2rlv29612.1.2 switch=False enabled=True phases=2 linecode=1p_oh_al_4/0_zuzara_2

New Line.l(r:p2rdt12716lv-p2rlv29614) length=0.0430574 units=km bus1=p2rdt12716lv.1.2 bus2=p2rlv29614.1.2 switch=False enabled=True phases=2 linecode=1p_oh_al_4/0_zuzara_2

New Line.l(r:p2rdm29220-p2rlv29613) length=0.0232187 units=km bus1=p2rdm29220.1.2 bus2=p2rlv29613.1.2 switch=False enabled=True phases=2 linecode=1p_oh_al_2/0_rucina_2

New Line.l(r:p2rdm29220-p2rdt12716lv) length=0.0195109 units=km bus1=p2rdt12716lv.1.2 bus2=p2rdm29220.1.2 switch=False enabled=True phases=2 linecode=1p_oh_al_2/0_rucina_2

New Line.l(r:p2rdm29222-p2rlv29615) length=0.053462600000000006 units=km bus1=p2rdm29222.1.2 bus2=p2rlv29615.1.2 switch=False enabled=True phases=2 linecode=1p_oh_al_4/0_zuzara_2

New Line.l(r:p2rdm29222-p2rdt12716lv) length=0.019510800000000002 units=km bus1=p2rdt12716lv.1.2 bus2=p2rdm29222.1.2 switch=False enabled=True phases=2 linecode=1p_oh_al_2/0_rucina_2

New Line.l(r:p2rdt12717lv-p2rlv29616) length=0.0538898 units=km bus1=p2rdt12717lv.1.2 bus2=p2rlv29616.1.2 switch=False enabled=True phases=2 linecode=1p_oh_al_4/0_zuzara_2

New Line.l(r:p2rdt12718lv-p2rlv29617) length=0.0194967 units=km bus1=p2rdt12718lv.1.2 bus2=p2rlv29617.1.2 switch=False enabled=True phases=2 linecode=1p_oh_al_2/0_rucina_2

New Line.l(r:p2rdt12718lv-p2rlv31124) length=0.0163687 units=km bus1=p2rdt12718lv.1.2 bus2=p2rlv31124.1.2 switch=False enabled=True phases=2 linecode=1p_oh_al_2/0_rucina_2

New Line.l(r:p2rdt12728lv-p2rlv29645) length=0.0696223 units=km bus1=p2rdt12728lv.1.2 bus2=p2rlv29645.1.2 switch=False enabled=True phases=2 linecode=1p_oh_al_4/0_zuzara_2

New Line.l(r:p2rdm29257-p2rlv29646) length=0.0155441 units=km bus1=p2rdm29257.1.2 bus2=p2rlv29646.1.2 switch=False enabled=True phases=2 linecode=1p_oh_al_2/0_rucina_2

New Line.l(r:p2rdm29257-p2rdt12728lv) length=0.0193415 units=km bus1=p2rdt12728lv.1.2 bus2=p2rdm29257.1.2 switch=False enabled=True phases=2 linecode=1p_oh_al_2/0_rucina_2

New Line.l(r:p2rdt12729lv-p2rlv29652) length=0.00706884 units=km bus1=p2rdt12729lv.1.2 bus2=p2rlv29652.1.2 switch=False enabled=True phases=2 linecode=1p_oh_al_2/0_rucina_2

New Line.l(r:p2rdm29258-p2rlv29647) length=0.0496445 units=km bus1=p2rdm29258.1.2 bus2=p2rlv29647.1.2 switch=False enabled=True phases=2 linecode=1p_oh_al_4/0_zuzara_2

New Line.l(r:p2rdm29258-p2rdt12729lv) length=0.0574949 units=km bus1=p2rdt12729lv.1.2 bus2=p2rdm29258.1.2 switch=False enabled=True phases=2 linecode=1p_oh_al_4/0_zuzara_2

New Line.l(r:p2rdm29259-p2rlv29650) length=0.0786481 units=km bus1=p2rdm29259.1.2 bus2=p2rlv29650.1.2 switch=False enabled=True phases=2 linecode=1p_oh_al_4/0_zuzara_2

New Line.l(r:p2rdm29259-p2rlv29651) length=0.0275287 units=km bus1=p2rdm29259.1.2 bus2=p2rlv29651.1.2 switch=False enabled=True phases=2 linecode=1p_oh_al_4/0_zuzara_2

New Line.l(r:p2rdm29259-p2rdt12729lv) length=0.0375939 units=km bus1=p2rdt12729lv.1.2 bus2=p2rdm29259.1.2 switch=False enabled=True phases=2 linecode=1p_oh_al_4/0_zuzara_2

New Line.l(r:p2rdt12730lv-p2rlv29648) length=0.0285489 units=km bus1=p2rdt12730lv.1.2 bus2=p2rlv29648.1.2 switch=False enabled=True phases=2 linecode=1p_oh_al_4/0_zuzara_2

New Line.l(r:p2rdt12730lv-p2rlv29649) length=0.0285489 units=km bus1=p2rdt12730lv.1.2 bus2=p2rlv29649.1.2 switch=False enabled=True phases=2 linecode=1p_oh_al_4/0_zuzara_2

New Line.l(r:p2rdt12731lv-p2rlv29653) length=0.0499744 units=km bus1=p2rdt12731lv.1.2 bus2=p2rlv29653.1.2 switch=False enabled=True phases=2 linecode=1p_oh_al_4/0_zuzara_2

New Line.l(r:p2rdt12732lv-p2rlv29654) length=0.013514800000000002 units=km bus1=p2rdt12732lv.1.2 bus2=p2rlv29654.1.2 switch=False enabled=True phases=2 linecode=1p_oh_al_2/0_rucina_2

New Line.l(r:p2rdm29267-p2rlv29659) length=0.00802318 units=km bus1=p2rdm29267.1.2 bus2=p2rlv29659.1.2 switch=False enabled=True phases=2 linecode=1p_oh_al_2/0_rucina_2

New Line.l(r:p2rdm29266-p2rlv29655) length=0.00679777 units=km bus1=p2rdm29266.1.2 bus2=p2rlv29655.1.2 switch=False enabled=True phases=2 linecode=1p_oh_al_2/0_rucina_2

New Line.l(r:p2rdm29266-p2rdm29267) length=0.0173922 units=km bus1=p2rdm29267.1.2 bus2=p2rdm29266.1.2 switch=False enabled=True phases=2 linecode=1p_oh_al_2/0_rucina_2

New Line.l(r:p2rdm29267-p2rdt12733lv) length=0.0196914 units=km bus1=p2rdt12733lv.1.2 bus2=p2rdm29267.1.2 switch=False enabled=True phases=2 linecode=1p_oh_al_2/0_rucina_2

New Line.l(r:p2rdm29268-p2rlv29660) length=0.00548476 units=km bus1=p2rdm29268.1.2 bus2=p2rlv29660.1.2 switch=False enabled=True phases=2 linecode=1p_oh_al_2/0_rucina_2

New Line.l(r:p2rdm29269-p2rlv31121) length=0.00439901 units=km bus1=p2rdm29269.1.2 bus2=p2rlv31121.1.2 switch=False enabled=True phases=2 linecode=1p_oh_al_2/0_rucina_2

New Line.l(r:p2rdm29268-p2rdm29269) length=0.0197017 units=km bus1=p2rdm29268.1.2 bus2=p2rdm29269.1.2 switch=False enabled=True phases=2 linecode=1p_oh_al_2/0_rucina_2

New Line.l(r:p2rdm29268-p2rdt12733lv) length=0.0197017 units=km bus1=p2rdt12733lv.1.2 bus2=p2rdm29268.1.2 switch=False enabled=True phases=2 linecode=1p_oh_al_2/0_rucina_2

New Line.l(r:p2rdt12734lv-p2rlv29657) length=0.0253106 units=km bus1=p2rdt12734lv.1.2 bus2=p2rlv29657.1.2 switch=False enabled=True phases=2 linecode=1p_oh_al_2/0_rucina_2

New Line.l(r:p2rdt12734lv-p2rlv29658) length=0.00545444 units=km bus1=p2rdt12734lv.1.2 bus2=p2rlv29658.1.2 switch=False enabled=True phases=2 linecode=1p_oh_al_2/0_rucina_2

New Line.l(r:p2rdm29270-p2rlv29656) length=0.0198274 units=km bus1=p2rdm29270.1.2 bus2=p2rlv29656.1.2 switch=False enabled=True phases=2 linecode=1p_oh_al_2/0_rucina_2

New Line.l(r:p2rdm29270-p2rdt12734lv) length=0.015622 units=km bus1=p2rdt12734lv.1.2 bus2=p2rdm29270.1.2 switch=False enabled=True phases=2 linecode=1p_oh_al_2/0_rucina_2

New Line.l(r:p2rdt12751lv-p2rlv29697) length=0.0238715 units=km bus1=p2rdt12751lv.1.2 bus2=p2rlv29697.1.2 switch=False enabled=True phases=2 linecode=1p_oh_al_2/0_rucina_2

New Line.l(r:p2rdm29311-p2rlv29700) length=0.009555940000000002 units=km bus1=p2rdm29311.1.2 bus2=p2rlv29700.1.2 switch=False enabled=True phases=2 linecode=1p_oh_al_2/0_rucina_2

New Line.l(r:p2rdm29310-p2rlv29698) length=0.0264783 units=km bus1=p2rdm29310.1.2 bus2=p2rlv29698.1.2 switch=False enabled=True phases=2 linecode=1p_oh_al_2/0_rucina_2

New Line.l(r:p2rdm29310-p2rdm29311) length=0.0171755 units=km bus1=p2rdm29311.1.2 bus2=p2rdm29310.1.2 switch=False enabled=True phases=2 linecode=1p_oh_al_2/0_rucina_2

New Line.l(r:p2rdm29311-p2rdt12752lv) length=0.0171747 units=km bus1=p2rdt12752lv.1.2 bus2=p2rdm29311.1.2 switch=False enabled=True phases=2 linecode=1p_oh_al_2/0_rucina_2

New Line.l(r:p2rdm29312-p2rlv29701) length=0.023009 units=km bus1=p2rdm29312.1.2 bus2=p2rlv29701.1.2 switch=False enabled=True phases=2 linecode=1p_oh_al_2/0_rucina_2

New Line.l(r:p2rdm29312-p2rdt12752lv) length=0.0594494 units=km bus1=p2rdt12752lv.1.2 bus2=p2rdm29312.1.2 switch=False enabled=True phases=2 linecode=1p_oh_al_4/0_zuzara_2

New Line.l(r:p2rdm29313-p2rlv29699) length=0.00967873 units=km bus1=p2rdm29313.1.2 bus2=p2rlv29699.1.2 switch=False enabled=True phases=2 linecode=1p_oh_al_2/0_rucina_2

New Line.l(r:p2rdm29313-p2rdt12753lv) length=0.0576305 units=km bus1=p2rdt12753lv.1.2 bus2=p2rdm29313.1.2 switch=False enabled=True phases=2 linecode=1p_oh_al_4/0_zuzara_2

New Line.l(r:p2rdm29314-p2rlv29704) length=0.0115105 units=km bus1=p2rdm29314.1.2 bus2=p2rlv29704.1.2 switch=False enabled=True phases=2 linecode=1p_oh_al_2/0_rucina_2

New Line.l(r:p2rdm29314-p2rdt12753lv) length=0.05550270000000001 units=km bus1=p2rdt12753lv.1.2 bus2=p2rdm29314.1.2 switch=False enabled=True phases=2 linecode=1p_oh_al_4/0_zuzara_2

New Line.l(r:p2rdt12754lv-p2rlv29705) length=0.0117321 units=km bus1=p2rdt12754lv.1.2 bus2=p2rlv29705.1.2 switch=False enabled=True phases=2 linecode=1p_oh_al_2/0_rucina_2

New Line.l(r:p2rdt12754lv-p2rlv29707) length=0.00741151 units=km bus1=p2rdt12754lv.1.2 bus2=p2rlv29707.1.2 switch=False enabled=True phases=2 linecode=1p_oh_al_2/0_rucina_2

New Line.l(r:p2rdm29315-p2rlv29702) length=0.0168135 units=km bus1=p2rdm29315.1.2 bus2=p2rlv29702.1.2 switch=False enabled=True phases=2 linecode=1p_oh_al_2/0_rucina_2

New Line.l(r:p2rdm29315-p2rdt12754lv) length=0.0527022 units=km bus1=p2rdt12754lv.1.2 bus2=p2rdm29315.1.2 switch=False enabled=True phases=2 linecode=1p_oh_al_4/0_zuzara_2

New Line.l(r:p2rdm29317-p2rlv29706) length=0.00902237 units=km bus1=p2rdm29317.1.2 bus2=p2rlv29706.1.2 switch=False enabled=True phases=2 linecode=1p_oh_al_2/0_rucina_2

New Line.l(r:p2rdm29317-p2rdt12754lv) length=0.0844528 units=km bus1=p2rdt12754lv.1.2 bus2=p2rdm29317.1.2 switch=False enabled=True phases=2 linecode=1p_oh_al_4/0_zuzara_2

New Line.l(r:p2rdt12755lv-p2rlv29703) length=0.019891600000000002 units=km bus1=p2rdt12755lv.1.2 bus2=p2rlv29703.1.2 switch=False enabled=True phases=2 linecode=1p_oh_al_2/0_rucina_2

New Line.l(r:p2rdt12756lv-p2rlv29708) length=0.0163845 units=km bus1=p2rdt12756lv.1.2 bus2=p2rlv29708.1.2 switch=False enabled=True phases=2 linecode=1p_oh_al_2/0_rucina_2

New Line.l(r:p2rdt12757lv-p2rlv29719) length=0.0804254 units=km bus1=p2rdt12757lv.1.2 bus2=p2rlv29719.1.2 switch=False enabled=True phases=2 linecode=1p_oh_al_4/0_zuzara_2

New Line.l(r:p2rdt12757lv-p2rlv29720) length=0.06735140000000002 units=km bus1=p2rdt12757lv.1.2 bus2=p2rlv29720.1.2 switch=False enabled=True phases=2 linecode=1p_oh_al_4/0_zuzara_2

New Line.l(r:p2rdm29321-p2rlv29709) length=0.0206752 units=km bus1=p2rdm29321.1.2 bus2=p2rlv29709.1.2 switch=False enabled=True phases=2 linecode=1p_oh_al_2/0_rucina_2

New Line.l(r:p2rdm29321-p2rdt12757lv) length=0.0369238 units=km bus1=p2rdt12757lv.1.2 bus2=p2rdm29321.1.2 switch=False enabled=True phases=2 linecode=1p_oh_al_4/0_zuzara_2

New Line.l(r:p2rdm29322-p2rlv29710) length=0.022124 units=km bus1=p2rdm29322.1.2 bus2=p2rlv29710.1.2 switch=False enabled=True phases=2 linecode=1p_oh_al_2/0_rucina_2

New Line.l(r:p2rdm29322-p2rdt12757lv) length=0.018457 units=km bus1=p2rdt12757lv.1.2 bus2=p2rdm29322.1.2 switch=False enabled=True phases=2 linecode=1p_oh_al_2/0_rucina_2

New Line.l(r:p2rdm29325-p2rlv29711) length=0.0195966 units=km bus1=p2rdm29325.1.2 bus2=p2rlv29711.1.2 switch=False enabled=True phases=2 linecode=1p_oh_al_2/0_rucina_2

New Line.l(r:p2rdm29325-p2rdt12758lv) length=0.028194700000000003 units=km bus1=p2rdt12758lv.1.2 bus2=p2rdm29325.1.2 switch=False enabled=True phases=2 linecode=1p_oh_al_4/0_zuzara_2

New Line.l(r:p2rdm29326-p2rlv29713) length=0.0290513 units=km bus1=p2rdm29326.1.2 bus2=p2rlv29713.1.2 switch=False enabled=True phases=2 linecode=1p_oh_al_4/0_zuzara_2

New Line.l(r:p2rdm29326-p2rdt12758lv) length=0.0153669 units=km bus1=p2rdt12758lv.1.2 bus2=p2rdm29326.1.2 switch=False enabled=True phases=2 linecode=1p_oh_al_2/0_rucina_2

New Line.l(r:p2rdt12759lv-p2rlv29714) length=0.0595802 units=km bus1=p2rdt12759lv.1.2 bus2=p2rlv29714.1.2 switch=False enabled=True phases=2 linecode=1p_oh_al_4/0_zuzara_2

New Line.l(r:p2rdm29327-p2rlv29712) length=0.0228458 units=km bus1=p2rdm29327.1.2 bus2=p2rlv29712.1.2 switch=False enabled=True phases=2 linecode=1p_oh_al_2/0_rucina_2

New Line.l(r:p2rdm29327-p2rdt12759lv) length=0.0183425 units=km bus1=p2rdt12759lv.1.2 bus2=p2rdm29327.1.2 switch=False enabled=True phases=2 linecode=1p_oh_al_2/0_rucina_2

New Line.l(r:p2rdm29329-p2rlv29715) length=0.017282 units=km bus1=p2rdm29329.1.2 bus2=p2rlv29715.1.2 switch=False enabled=True phases=2 linecode=1p_oh_al_2/0_rucina_2

New Line.l(r:p2rdm29329-p2rlv29716) length=0.05414660000000001 units=km bus1=p2rdm29329.1.2 bus2=p2rlv29716.1.2 switch=False enabled=True phases=2 linecode=1p_oh_al_4/0_zuzara_2

New Line.l(r:p2rdm29329-p2rdt12759lv) length=0.0183425 units=km bus1=p2rdt12759lv.1.2 bus2=p2rdm29329.1.2 switch=False enabled=True phases=2 linecode=1p_oh_al_2/0_rucina_2

New Line.l(r:p2rdt12760lv-p2rlv29718) length=0.0687775 units=km bus1=p2rdt12760lv.1.2 bus2=p2rlv29718.1.2 switch=False enabled=True phases=2 linecode=1p_oh_al_4/0_zuzara_2

New Line.l(r:p2rdt12760lv-p2rlv29724) length=0.0055953 units=km bus1=p2rdt12760lv.1.2 bus2=p2rlv29724.1.2 switch=False enabled=True phases=2 linecode=1p_oh_al_2/0_rucina_2

New Line.l(r:p2rdm29331-p2rlv29717) length=0.067391 units=km bus1=p2rdm29331.1.2 bus2=p2rlv29717.1.2 switch=False enabled=True phases=2 linecode=1p_oh_al_4/0_zuzara_2

New Line.l(r:p2rdm29331-p2rlv29725) length=0.007516710000000001 units=km bus1=p2rdm29331.1.2 bus2=p2rlv29725.1.2 switch=False enabled=True phases=2 linecode=1p_oh_al_2/0_rucina_2

New Line.l(r:p2rdm29331-p2rlv29726) length=0.00513469 units=km bus1=p2rdm29331.1.2 bus2=p2rlv29726.1.2 switch=False enabled=True phases=2 linecode=1p_oh_al_2/0_rucina_2

New Line.l(r:p2rdm29331-p2rdt12760lv) length=0.0184811 units=km bus1=p2rdt12760lv.1.2 bus2=p2rdm29331.1.2 switch=False enabled=True phases=2 linecode=1p_oh_al_2/0_rucina_2

New Line.l(r:p2rdm29333-p2rlv29722) length=0.00635519 units=km bus1=p2rdm29333.1.2 bus2=p2rlv29722.1.2 switch=False enabled=True phases=2 linecode=1p_oh_al_2/0_rucina_2

New Line.l(r:p2rdm29333-p2rlv29723) length=0.00569035 units=km bus1=p2rdm29333.1.2 bus2=p2rlv29723.1.2 switch=False enabled=True phases=2 linecode=1p_oh_al_2/0_rucina_2

New Line.l(r:p2rdm29333-p2rdt12760lv) length=0.018481200000000003 units=km bus1=p2rdt12760lv.1.2 bus2=p2rdm29333.1.2 switch=False enabled=True phases=2 linecode=1p_oh_al_2/0_rucina_2

New Line.l(r:p2rdt12761lv-p2rlv29721) length=0.0692348 units=km bus1=p2rdt12761lv.1.2 bus2=p2rlv29721.1.2 switch=False enabled=True phases=2 linecode=1p_oh_al_4/0_zuzara_2

New Line.l(r:p2rdt12789lv-p2rlv29785) length=0.0181701 units=km bus1=p2rdt12789lv.1.2 bus2=p2rlv29785.1.2 switch=False enabled=True phases=2 linecode=1p_oh_al_2/0_rucina_2

New Line.l(r:p2rdt12789lv-p2rlv29786) length=0.028643 units=km bus1=p2rdt12789lv.1.2 bus2=p2rlv29786.1.2 switch=False enabled=True phases=2 linecode=1p_oh_al_4/0_zuzara_2

New Line.l(r:p2rdt12789lv-p2rlv29787) length=0.0191492 units=km bus1=p2rdt12789lv.1.2 bus2=p2rlv29787.1.2 switch=False enabled=True phases=2 linecode=1p_oh_al_2/0_rucina_2

New Line.l(r:p2rdt12790lv-p2rlv29788)_s0 length=0.001 units=km bus1=p2rdt12790lv.1.2 bus2=p2rdt12790lv-p2rlv29788x.1.2 switch=False enabled=True phases=2 linecode=1p_oh_al_4_periwinkle_2

New Line.l(r:p2rdt12790lv-p2rlv29788)_s1 length=0.001 units=km bus1=p2rdt12790lv-p2rlv29788x.1.2 bus2=p2rdt12790lv-p2rlv29788xx.1.2 switch=False enabled=True phases=2 linecode=1p_oh_al_4_periwinkle_2

New Line.l(r:p2rdt12790lv-p2rlv29788)_s2 length=0.0572557 units=km bus1=p2rdt12790lv-p2rlv29788xx.1.2 bus2=p2rlv29788.1.2 switch=False enabled=True phases=2 linecode=1p_oh_al_4/0_zuzara_2

New Line.l(r:p2rdt12801lv-p2rlv29806) length=0.00410201 units=km bus1=p2rdt12801lv.1.2 bus2=p2rlv29806.1.2 switch=False enabled=True phases=2 linecode=1p_oh_al_2/0_rucina_2

New Line.l(r:p2rdm29410-p2rlv29805) length=0.00541569 units=km bus1=p2rdm29410.1.2 bus2=p2rlv29805.1.2 switch=False enabled=True phases=2 linecode=1p_oh_al_2/0_rucina_2

New Line.l(r:p2rdm29410-p2rdt12801lv) length=0.01855 units=km bus1=p2rdt12801lv.1.2 bus2=p2rdm29410.1.2 switch=False enabled=True phases=2 linecode=1p_oh_al_2/0_rucina_2

New Line.l(r:p2rdt12802lv-p2rlv29807) length=0.0512881 units=km bus1=p2rdt12802lv.1.2 bus2=p2rlv29807.1.2 switch=False enabled=True phases=2 linecode=1p_oh_al_4/0_zuzara_2

New Line.l(r:p2rdt12802lv-p2rlv29808) length=0.0328257 units=km bus1=p2rdt12802lv.1.2 bus2=p2rlv29808.1.2 switch=False enabled=True phases=2 linecode=1p_oh_al_4/0_zuzara_2

New Line.l(r:p2rdt12802lv-p2rlv29809) length=0.0814337 units=km bus1=p2rdt12802lv.1.2 bus2=p2rlv29809.1.2 switch=False enabled=True phases=2 linecode=1p_oh_al_4/0_zuzara_2

New Line.l(r:p2rdt12802lv-p2rlv29810) length=0.0740354 units=km bus1=p2rdt12802lv.1.2 bus2=p2rlv29810.1.2 switch=False enabled=True phases=2 linecode=1p_oh_al_4/0_zuzara_2

New Line.l(r:p2rdt12802lv-p2rlv29811) length=0.0591085 units=km bus1=p2rdt12802lv.1.2 bus2=p2rlv29811.1.2 switch=False enabled=True phases=2 linecode=1p_oh_al_4/0_zuzara_2

New Line.l(r:p2rdt12802lv-p2rlv29812) length=0.11620000000000001 units=km bus1=p2rdt12802lv.1.2 bus2=p2rlv29812.1.2 switch=False enabled=True phases=2 linecode=1p_oh_al_4/0_zuzara_2

New Line.l(r:p2rdm29418-p2rlv29813) length=0.0357162 units=km bus1=p2rdm29418.1.2 bus2=p2rlv29813.1.2 switch=False enabled=True phases=2 linecode=1p_oh_al_4/0_zuzara_2

New Line.l(r:p2rdm29418-p2rdt12803lv) length=0.0176777 units=km bus1=p2rdt12803lv.1.2 bus2=p2rdm29418.1.2 switch=False enabled=True phases=2 linecode=1p_oh_al_2/0_rucina_2

New Line.l(r:p2rdm29419-p2rlv29814) length=0.056897300000000005 units=km bus1=p2rdm29419.1.2 bus2=p2rlv29814.1.2 switch=False enabled=True phases=2 linecode=1p_oh_al_4/0_zuzara_2

New Line.l(r:p2rdm29419-p2rdt12803lv) length=0.0176825 units=km bus1=p2rdt12803lv.1.2 bus2=p2rdm29419.1.2 switch=False enabled=True phases=2 linecode=1p_oh_al_2/0_rucina_2

New Line.l(r:p2rdt12804lv-p2rlv29818) length=0.0559189 units=km bus1=p2rdt12804lv.1.2 bus2=p2rlv29818.1.2 switch=False enabled=True phases=2 linecode=1p_oh_al_4/0_zuzara_2

New Line.l(r:p2rdm29420-p2rlv29815) length=0.0545446 units=km bus1=p2rdm29420.1.2 bus2=p2rlv29815.1.2 switch=False enabled=True phases=2 linecode=1p_oh_al_4/0_zuzara_2

New Line.l(r:p2rdm29420-p2rlv29816) length=0.031001 units=km bus1=p2rdm29420.1.2 bus2=p2rlv29816.1.2 switch=False enabled=True phases=2 linecode=1p_oh_al_4/0_zuzara_2

New Line.l(r:p2rdm29420-p2rdt12804lv) length=0.0168301 units=km bus1=p2rdt12804lv.1.2 bus2=p2rdm29420.1.2 switch=False enabled=True phases=2 linecode=1p_oh_al_2/0_rucina_2

New Line.l(r:p2rdt12805lv-p2rlv29817) length=0.00781798 units=km bus1=p2rdt12805lv.1.2 bus2=p2rlv29817.1.2 switch=False enabled=True phases=2 linecode=1p_oh_al_2/0_rucina_2

New Line.l(r:p2rdt12806lv-p2rlv29819) length=0.0111126 units=km bus1=p2rdt12806lv.1.2 bus2=p2rlv29819.1.2 switch=False enabled=True phases=2 linecode=1p_oh_al_2/0_rucina_2

New Line.l(r:p2rdt12807lv-p2rlv29820) length=0.0174539 units=km bus1=p2rdt12807lv.1.2 bus2=p2rlv29820.1.2 switch=False enabled=True phases=2 linecode=1p_oh_al_2/0_rucina_2

New Line.l(r:p2rdm29426-p2rlv29821) length=0.0051277 units=km bus1=p2rdm29426.1.2 bus2=p2rlv29821.1.2 switch=False enabled=True phases=2 linecode=1p_oh_al_2/0_rucina_2

New Line.l(r:p2rdm29426-p2rdt12807lv) length=0.0133138 units=km bus1=p2rdt12807lv.1.2 bus2=p2rdm29426.1.2 switch=False enabled=True phases=2 linecode=1p_oh_al_2/0_rucina_2

New Line.l(r:p2rdt12832lv-p2rlv30019) length=0.0243751 units=km bus1=p2rdt12832lv.1.2 bus2=p2rlv30019.1.2 switch=False enabled=True phases=2 linecode=1p_oh_al_2/0_rucina_2

New Line.l(r:p2rdm29477-p2rlv29871) length=0.019959 units=km bus1=p2rdm29477.1.2 bus2=p2rlv29871.1.2 switch=False enabled=True phases=2 linecode=1p_oh_al_2/0_rucina_2

New Line.l(r:p2rdm29477-p2rdt12832lv) length=0.0192837 units=km bus1=p2rdt12832lv.1.2 bus2=p2rdm29477.1.2 switch=False enabled=True phases=2 linecode=1p_oh_al_2/0_rucina_2

New Line.l(r:p2rdt12833lv-p2rlv29872) length=0.0192729 units=km bus1=p2rdt12833lv.1.2 bus2=p2rlv29872.1.2 switch=False enabled=True phases=2 linecode=1p_oh_al_2/0_rucina_2

New Line.l(r:p2rdt12833lv-p2rlv29873) length=0.0668992 units=km bus1=p2rdt12833lv.1.2 bus2=p2rlv29873.1.2 switch=False enabled=True phases=2 linecode=1p_oh_al_4/0_zuzara_2

New Line.l(r:p2rdm29481-p2rlv29874) length=0.0630815 units=km bus1=p2rdm29481.1.2 bus2=p2rlv29874.1.2 switch=False enabled=True phases=2 linecode=1p_oh_al_4/0_zuzara_2

New Line.l(r:p2rdm29481-p2rdt12833lv) length=0.0192907 units=km bus1=p2rdt12833lv.1.2 bus2=p2rdm29481.1.2 switch=False enabled=True phases=2 linecode=1p_oh_al_2/0_rucina_2

New Line.l(r:p2rdt12834lv-p2rlv29875) length=0.00946277 units=km bus1=p2rdt12834lv.1.2 bus2=p2rlv29875.1.2 switch=False enabled=True phases=2 linecode=1p_oh_al_2/0_rucina_2

New Line.l(r:p2rdt12834lv-p2rlv29876) length=0.0506933 units=km bus1=p2rdt12834lv.1.2 bus2=p2rlv29876.1.2 switch=False enabled=True phases=2 linecode=1p_oh_al_4/0_zuzara_2

New Line.l(r:p2rdt12835lv-p2rlv29877) length=0.07049980000000002 units=km bus1=p2rdt12835lv.1.2 bus2=p2rlv29877.1.2 switch=False enabled=True phases=2 linecode=1p_oh_al_4/0_zuzara_2

New Line.l(r:p2rdt12836lv-p2rlv29879) length=0.0191184 units=km bus1=p2rdt12836lv.1.2 bus2=p2rlv29879.1.2 switch=False enabled=True phases=2 linecode=1p_oh_al_2/0_rucina_2

New Line.l(r:p2rdt12836lv-p2rlv30591) length=0.0217762 units=km bus1=p2rdt12836lv.1.2 bus2=p2rlv30591.1.2 switch=False enabled=True phases=2 linecode=1p_oh_al_2/0_rucina_2

New Line.l(r:p2rdm29485-p2rlv29878) length=0.0351408 units=km bus1=p2rdm29485.1.2 bus2=p2rlv29878.1.2 switch=False enabled=True phases=2 linecode=1p_oh_al_4/0_zuzara_2

New Line.l(r:p2rdm29485-p2rlv31360) length=0.0566816 units=km bus1=p2rdm29485.1.2 bus2=p2rlv31360.1.2 switch=False enabled=True phases=2 linecode=1p_oh_al_4/0_zuzara_2

New Line.l(r:p2rdm29487-p2rlv30590) length=0.0154143 units=km bus1=p2rdm29487.1.2 bus2=p2rlv30590.1.2 switch=False enabled=True phases=2 linecode=1p_oh_al_2/0_rucina_2

New Line.l(r:p2rdm29485-p2rdm29487) length=0.0115912 units=km bus1=p2rdm29485.1.2 bus2=p2rdm29487.1.2 switch=False enabled=True phases=2 linecode=1p_oh_al_2/0_rucina_2

New Line.l(r:p2rdm29485-p2rdt12836lv) length=0.0193566 units=km bus1=p2rdt12836lv.1.2 bus2=p2rdm29485.1.2 switch=False enabled=True phases=2 linecode=1p_oh_al_2/0_rucina_2

New Line.l(r:p2rdm29489-p2rlv30592) length=0.016349100000000002 units=km bus1=p2rdm29489.1.2 bus2=p2rlv30592.1.2 switch=False enabled=True phases=2 linecode=1p_oh_al_2/0_rucina_2

New Line.l(r:p2rdm29490-p2rlv30594) length=0.0150281 units=km bus1=p2rdm29490.1.2 bus2=p2rlv30594.1.2 switch=False enabled=True phases=2 linecode=1p_ug_al_1/0_brenau_2

New Line.l(r:p2rdm29489-p2rdm29490) length=0.0703231 units=km bus1=p2rdm29489.1.2 bus2=p2rdm29490.1.2 switch=False enabled=True phases=2 linecode=1p_oh_al_4/0_zuzara_2

New Line.l(r:p2rdm29489-p2rdt12836lv) length=0.0193646 units=km bus1=p2rdt12836lv.1.2 bus2=p2rdm29489.1.2 switch=False enabled=True phases=2 linecode=1p_oh_al_2/0_rucina_2

New Line.l(r:p2rdt12837lv-p2rlv29880) length=0.0356423 units=km bus1=p2rdt12837lv.1.2 bus2=p2rlv29880.1.2 switch=False enabled=True phases=2 linecode=1p_oh_al_4/0_zuzara_2

New Line.l(r:p2rdt12837lv-p2rlv29881) length=0.011493 units=km bus1=p2rdt12837lv.1.2 bus2=p2rlv29881.1.2 switch=False enabled=True phases=2 linecode=1p_oh_al_2/0_rucina_2

New Line.l(r:p2rdt12837lv-p2rlv29883) length=0.00790383 units=km bus1=p2rdt12837lv.1.2 bus2=p2rlv29883.1.2 switch=False enabled=True phases=2 linecode=1p_oh_al_2/0_rucina_2

New Line.l(r:p2rdt12837lv-p2rlv29886) length=0.037485 units=km bus1=p2rdt12837lv.1.2 bus2=p2rlv29886.1.2 switch=False enabled=True phases=2 linecode=1p_oh_al_4/0_zuzara_2

New Line.l(r:p2rdm29495-p2rlv29885) length=0.0295912 units=km bus1=p2rdm29495.1.2 bus2=p2rlv29885.1.2 switch=False enabled=True phases=2 linecode=1p_oh_al_4/0_zuzara_2

New Line.l(r:p2rdm29495-p2rdt12837lv) length=0.011287000000000002 units=km bus1=p2rdt12837lv.1.2 bus2=p2rdm29495.1.2 switch=False enabled=True phases=2 linecode=1p_oh_al_2/0_rucina_2

New Line.l(r:p2rdm29497-p2rlv29882) length=0.014279200000000002 units=km bus1=p2rdm29497.1.2 bus2=p2rlv29882.1.2 switch=False enabled=True phases=2 linecode=1p_oh_al_2/0_rucina_2

New Line.l(r:p2rdm29497-p2rlv29884) length=0.015959 units=km bus1=p2rdm29497.1.2 bus2=p2rlv29884.1.2 switch=False enabled=True phases=2 linecode=1p_oh_al_2/0_rucina_2

New Line.l(r:p2rdm29497-p2rdt12838lv) length=0.0480337 units=km bus1=p2rdt12838lv.1.2 bus2=p2rdm29497.1.2 switch=False enabled=True phases=2 linecode=1p_oh_al_4/0_zuzara_2

New Line.l(r:p2rdm29499-p2rlv29887) length=0.0213094 units=km bus1=p2rdm29499.1.2 bus2=p2rlv29887.1.2 switch=False enabled=True phases=2 linecode=1p_oh_al_2/0_rucina_2

New Line.l(r:p2rdm29499-p2rlv30581) length=0.00731954 units=km bus1=p2rdm29499.1.2 bus2=p2rlv30581.1.2 switch=False enabled=True phases=2 linecode=1p_oh_al_2/0_rucina_2

New Line.l(r:p2rdm29500-p2rlv29888) length=0.0247067 units=km bus1=p2rdm29500.1.2 bus2=p2rlv29888.1.2 switch=False enabled=True phases=2 linecode=1p_oh_al_2/0_rucina_2

New Line.l(r:p2rdm29499-p2rdm29500) length=0.0115799 units=km bus1=p2rdm29499.1.2 bus2=p2rdm29500.1.2 switch=False enabled=True phases=2 linecode=1p_oh_al_2/0_rucina_2

New Line.l(r:p2rdm29499-p2rdt12838lv) length=0.0186165 units=km bus1=p2rdt12838lv.1.2 bus2=p2rdm29499.1.2 switch=False enabled=True phases=2 linecode=1p_oh_al_2/0_rucina_2

New Line.l(r:p2rdm29506-p2rlv30198) length=0.00983874 units=km bus1=p2rdm29506.1.2 bus2=p2rlv30198.1.2 switch=False enabled=True phases=2 linecode=1p_ug_al_1/0_brenau_2

New Line.l(r:p2rdm29508-p2rlv30200) length=0.005080090000000001 units=km bus1=p2rdm29508.1.2 bus2=p2rlv30200.1.2 switch=False enabled=True phases=2 linecode=1p_ug_al_1/0_brenau_2

New Line.l(r:p2rdm29504-p2rlv30193) length=0.028821 units=km bus1=p2rdm29504.1.2 bus2=p2rlv30193.1.2 switch=False enabled=True phases=2 linecode=1p_ug_al_1/0_brenau_2

New Line.l(r:p2rdm29504-p2rlv30197) length=0.018363 units=km bus1=p2rdm29504.1.2 bus2=p2rlv30197.1.2 switch=False enabled=True phases=2 linecode=1p_ug_al_1/0_brenau_2

New Line.l(r:p2rdm29504-p2rlv30199) length=0.0046732100000000006 units=km bus1=p2rdm29504.1.2 bus2=p2rlv30199.1.2 switch=False enabled=True phases=2 linecode=1p_ug_al_1/0_brenau_2

New Line.l(r:p2rdm29504-p2rlv30203) length=0.0301247 units=km bus1=p2rdm29504.1.2 bus2=p2rlv30203.1.2 switch=False enabled=True phases=2 linecode=1p_ug_al_1/0_brenau_2

New Line.l(r:p2rdm29504-p2rdm29508) length=0.00535086 units=km bus1=p2rdm29508.1.2 bus2=p2rdm29504.1.2 switch=False enabled=True phases=2 linecode=1p_ug_al_1/0_brenau_2

New Line.l(r:p2rdm29506-p2rdm29508) length=0.00744584 units=km bus1=p2rdm29506.1.2 bus2=p2rdm29508.1.2 switch=False enabled=True phases=2 linecode=1p_ug_al_2/0_converse_2

New Line.l(r:p2rdm29506-p2rdt12839lv) length=0.00744584 units=km bus1=p2rdt12839lv.1.2 bus2=p2rdm29506.1.2 switch=False enabled=True phases=2 linecode=1p_ug_al_4/0_sweetbriar_2

New Line.l(r:p2rdm29509-p2rlv30201) length=0.0109386 units=km bus1=p2rdm29509.1.2 bus2=p2rlv30201.1.2 switch=False enabled=True phases=2 linecode=1p_ug_al_1/0_brenau_2

New Line.l(r:p2rdm29510-p2rlv30202) length=0.00826872 units=km bus1=p2rdm29510.1.2 bus2=p2rlv30202.1.2 switch=False enabled=True phases=2 linecode=1p_ug_al_1/0_brenau_2

New Line.l(r:p2rdm29502-p2rlv29889) length=0.0225237 units=km bus1=p2rdm29502.1.2 bus2=p2rlv29889.1.2 switch=False enabled=True phases=2 linecode=1p_oh_al_2/0_rucina_2

New Line.l(r:p2rdm29502-p2rlv30204) length=0.017908 units=km bus1=p2rdm29502.1.2 bus2=p2rlv30204.1.2 switch=False enabled=True phases=2 linecode=1p_oh_al_2/0_rucina_2

New Line.l(r:p2rdm29502-p2rdm29510) length=0.0471614 units=km bus1=p2rdm29510.1.2 bus2=p2rdm29502.1.2 switch=False enabled=True phases=2 linecode=1p_oh_al_4/0_zuzara_2

New Line.l(r:p2rdm29503-p2rlv30004) length=0.0205083 units=km bus1=p2rdm29503.1.2 bus2=p2rlv30004.1.2 switch=False enabled=True phases=2 linecode=1p_oh_al_2/0_rucina_2

New Line.l(r:p2rdm29503-p2rdm29510) length=0.030876 units=km bus1=p2rdm29510.1.2 bus2=p2rdm29503.1.2 switch=False enabled=True phases=2 linecode=1p_oh_al_4/0_zuzara_2

New Line.l(r:p2rdm29509-p2rdm29510) length=0.0196127 units=km bus1=p2rdm29509.1.2 bus2=p2rdm29510.1.2 switch=False enabled=True phases=2 linecode=1p_ug_al_1/0_brenau_2

New Line.l(r:p2rdm29509-p2rdt12839lv) length=0.00744584 units=km bus1=p2rdt12839lv.1.2 bus2=p2rdm29509.1.2 switch=False enabled=True phases=2 linecode=1p_ug_al_2/0_converse_2

New Line.l(r:p2rdt12840lv-p2rlv29895) length=0.00850161 units=km bus1=p2rdt12840lv.1.2 bus2=p2rlv29895.1.2 switch=False enabled=True phases=2 linecode=1p_ug_al_1/0_brenau_2

New Line.l(r:p2rdt12840lv-p2rlv29999) length=0.0224202 units=km bus1=p2rdt12840lv.1.2 bus2=p2rlv29999.1.2 switch=False enabled=True phases=2 linecode=1p_ug_al_1/0_brenau_2

New Line.l(r:p2rdt12840lv-p2rlv30001) length=0.0299941 units=km bus1=p2rdt12840lv.1.2 bus2=p2rlv30001.1.2 switch=False enabled=True phases=2 linecode=1p_ug_al_1/0_brenau_2

New Line.l(r:p2rdm29516-p2rlv29893) length=0.0239781 units=km bus1=p2rdm29516.1.2 bus2=p2rlv29893.1.2 switch=False enabled=True phases=2 linecode=1p_ug_al_1/0_brenau_2

New Line.l(r:p2rdm29516-p2rlv29894) length=0.0117066 units=km bus1=p2rdm29516.1.2 bus2=p2rlv29894.1.2 switch=False enabled=True phases=2 linecode=1p_ug_al_1/0_brenau_2

New Line.l(r:p2rdm29515-p2rlv29892) length=0.0213686 units=km bus1=p2rdm29515.1.2 bus2=p2rlv29892.1.2 switch=False enabled=True phases=2 linecode=1p_ug_al_1/0_brenau_2

New Line.l(r:p2rdm29513-p2rlv29890) length=0.0115091 units=km bus1=p2rdm29513.1.2 bus2=p2rlv29890.1.2 switch=False enabled=True phases=2 linecode=1p_ug_al_1/0_brenau_2

New Line.l(r:p2rdm29513-p2rlv29891) length=0.0278303 units=km bus1=p2rdm29513.1.2 bus2=p2rlv29891.1.2 switch=False enabled=True phases=2 linecode=1p_ug_al_1/0_brenau_2

New Line.l(r:p2rdm29519-p2rlv29896) length=0.0111316 units=km bus1=p2rdm29519.1.2 bus2=p2rlv29896.1.2 switch=False enabled=True phases=2 linecode=1p_ug_al_1/0_brenau_2

New Line.l(r:p2rdm29522-p2rlv30003) length=0.0100309 units=km bus1=p2rdm29522.1.2 bus2=p2rlv30003.1.2 switch=False enabled=True phases=2 linecode=1p_ug_al_1/0_brenau_2

New Line.l(r:p2rdm29523-p2rlv30006) length=0.0212528 units=km bus1=p2rdm29523.1.2 bus2=p2rlv30006.1.2 switch=False enabled=True phases=2 linecode=1p_ug_al_1/0_brenau_2

New Line.l(r:p2rdm29522-p2rdm29523) length=0.06993160000000001 units=km bus1=p2rdm29522.1.2 bus2=p2rdm29523.1.2 switch=False enabled=True phases=2 linecode=1p_ug_al_1/0_brenau_2

New Line.l(r:p2rdm29519-p2rdm29522) length=0.0247444 units=km bus1=p2rdm29519.1.2 bus2=p2rdm29522.1.2 switch=False enabled=True phases=2 linecode=1p_ug_al_1/0_brenau_2

New Line.l(r:p2rdm29513-p2rdm29519) length=0.0120103 units=km bus1=p2rdm29513.1.2 bus2=p2rdm29519.1.2 switch=False enabled=True phases=2 linecode=1p_ug_al_1/0_brenau_2

New Line.l(r:p2rdm29513-p2rdm29515) length=0.00696087 units=km bus1=p2rdm29515.1.2 bus2=p2rdm29513.1.2 switch=False enabled=True phases=2 linecode=1p_ug_al_2/0_converse_2

New Line.l(r:p2rdm29515-p2rdm29516) length=0.00620279 units=km bus1=p2rdm29516.1.2 bus2=p2rdm29515.1.2 switch=False enabled=True phases=2 linecode=1p_ug_al_4/0_sweetbriar_2

New Line.l(r:p2rdm29516-p2rdt12840lv) length=0.00713726 units=km bus1=p2rdt12840lv.1.2 bus2=p2rdm29516.1.2 switch=False enabled=True phases=2 linecode=1p_ug_al_4/0_sweetbriar_2

New Line.l(r:p2rdm29524-p2rlv30609) length=0.0429986 units=km bus1=p2rdm29524.1.2 bus2=p2rlv30609.1.2 switch=False enabled=True phases=2 linecode=1p_ug_al_1/0_brenau_2

New Line.l(r:p2rdm29524-p2rlv30610) length=0.0489534 units=km bus1=p2rdm29524.1.2 bus2=p2rlv30610.1.2 switch=False enabled=True phases=2 linecode=1p_ug_al_1/0_brenau_2

New Line.l(r:p2rdm29524-p2rdt12840lv) length=0.00565632 units=km bus1=p2rdt12840lv.1.2 bus2=p2rdm29524.1.2 switch=False enabled=True phases=2 linecode=1p_ug_al_1/0_brenau_2

New Line.l(r:p2rdt12841lv-p2rlv30184) length=0.010392 units=km bus1=p2rdt12841lv.1.2 bus2=p2rlv30184.1.2 switch=False enabled=True phases=2 linecode=1p_ug_al_1/0_brenau_2

New Line.l(r:p2rdm29530-p2rlv30183) length=0.012267400000000001 units=km bus1=p2rdm29530.1.2 bus2=p2rlv30183.1.2 switch=False enabled=True phases=2 linecode=1p_ug_al_1/0_brenau_2

New Line.l(r:p2rdm29530-p2rlv30185) length=0.0163253 units=km bus1=p2rdm29530.1.2 bus2=p2rlv30185.1.2 switch=False enabled=True phases=2 linecode=1p_ug_al_1/0_brenau_2

New Line.l(r:p2rdm29529-p2rlv30182) length=0.0106066 units=km bus1=p2rdm29529.1.2 bus2=p2rlv30182.1.2 switch=False enabled=True phases=2 linecode=1p_ug_al_1/0_brenau_2

New Line.l(r:p2rdm29529-p2rlv30186) length=0.0165548 units=km bus1=p2rdm29529.1.2 bus2=p2rlv30186.1.2 switch=False enabled=True phases=2 linecode=1p_ug_al_1/0_brenau_2

New Line.l(r:p2rdm29529-p2rlv30187) length=0.015541 units=km bus1=p2rdm29529.1.2 bus2=p2rlv30187.1.2 switch=False enabled=True phases=2 linecode=1p_ug_al_1/0_brenau_2

New Line.l(r:p2rdm29529-p2rlv30191) length=0.041984400000000005 units=km bus1=p2rdm29529.1.2 bus2=p2rlv30191.1.2 switch=False enabled=True phases=2 linecode=1p_ug_al_1/0_brenau_2

New Line.l(r:p2rdm29529-p2rdm29530) length=0.0195614 units=km bus1=p2rdm29530.1.2 bus2=p2rdm29529.1.2 switch=False enabled=True phases=2 linecode=1p_ug_al_1/0_brenau_2

New Line.l(r:p2rdm29530-p2rdt12841lv) length=0.00977671 units=km bus1=p2rdt12841lv.1.2 bus2=p2rdm29530.1.2 switch=False enabled=True phases=2 linecode=1p_ug_al_2/0_converse_2

New Line.l(r:p2rdm29536-p2rlv30192) length=0.0418231 units=km bus1=p2rdm29536.1.2 bus2=p2rlv30192.1.2 switch=False enabled=True phases=2 linecode=1p_ug_al_1/0_brenau_2

New Line.l(r:p2rdm29528-p2rlv29899) length=0.0155174 units=km bus1=p2rdm29528.1.2 bus2=p2rlv29899.1.2 switch=False enabled=True phases=2 linecode=1p_ug_al_1/0_brenau_2

New Line.l(r:p2rdm29526-p2rlv29897) length=0.0361294 units=km bus1=p2rdm29526.1.2 bus2=p2rlv29897.1.2 switch=False enabled=True phases=2 linecode=1p_ug_al_1/0_brenau_2

New Line.l(r:p2rdm29527-p2rlv29898) length=0.00548985 units=km bus1=p2rdm29527.1.2 bus2=p2rlv29898.1.2 switch=False enabled=True phases=2 linecode=1p_ug_al_1/0_brenau_2

New Line.l(r:p2rdm29526-p2rdm29527) length=0.008564690000000002 units=km bus1=p2rdm29526.1.2 bus2=p2rdm29527.1.2 switch=False enabled=True phases=2 linecode=1p_ug_al_1/0_brenau_2

New Line.l(r:p2rdm29526-p2rdm29528) length=0.00855545 units=km bus1=p2rdm29528.1.2 bus2=p2rdm29526.1.2 switch=False enabled=True phases=2 linecode=1p_ug_al_1/0_brenau_2

New Line.l(r:p2rdm29528-p2rdm29536) length=0.0229144 units=km bus1=p2rdm29536.1.2 bus2=p2rdm29528.1.2 switch=False enabled=True phases=2 linecode=1p_ug_al_1/0_brenau_2

New Line.l(r:p2rdm29536-p2rdt12841lv) length=0.00622981 units=km bus1=p2rdt12841lv.1.2 bus2=p2rdm29536.1.2 switch=False enabled=True phases=2 linecode=1p_ug_al_1/0_brenau_2

New Line.l(r:p2rdm29539-p2rlv30205) length=0.0127428 units=km bus1=p2rdm29539.1.2 bus2=p2rlv30205.1.2 switch=False enabled=True phases=2 linecode=1p_ug_al_1/0_brenau_2

New Line.l(r:p2rdm29538-p2rlv29901) length=0.00509346 units=km bus1=p2rdm29538.1.2 bus2=p2rlv29901.1.2 switch=False enabled=True phases=2 linecode=1p_oh_al_2/0_rucina_2

New Line.l(r:p2rdm29537-p2rlv29900) length=0.00571358 units=km bus1=p2rdm29537.1.2 bus2=p2rlv29900.1.2 switch=False enabled=True phases=2 linecode=1p_oh_al_2/0_rucina_2

New Line.l(r:p2rdm29537-p2rdm29538) length=0.0129194 units=km bus1=p2rdm29538.1.2 bus2=p2rdm29537.1.2 switch=False enabled=True phases=2 linecode=1p_oh_al_2/0_rucina_2

New Line.l(r:p2rdm29538-p2rdm29539) length=0.06760130000000002 units=km bus1=p2rdm29539.1.2 bus2=p2rdm29538.1.2 switch=False enabled=True phases=2 linecode=1p_oh_al_4/0_zuzara_2

New Line.l(r:p2rdm29539-p2rdt12842lv) length=0.00736316 units=km bus1=p2rdt12842lv.1.2 bus2=p2rdm29539.1.2 switch=False enabled=True phases=2 linecode=1p_ug_al_1/0_brenau_2

New Line.l(r:p2rdm29541-p2rlv30207) length=0.0351367 units=km bus1=p2rdm29541.1.2 bus2=p2rlv30207.1.2 switch=False enabled=True phases=2 linecode=1p_ug_al_1/0_brenau_2

New Line.l(r:p2rdm29540-p2rlv30206) length=0.0162589 units=km bus1=p2rdm29540.1.2 bus2=p2rlv30206.1.2 switch=False enabled=True phases=2 linecode=1p_ug_al_1/0_brenau_2

New Line.l(r:p2rdm29543-p2rlv30608) length=0.01617 units=km bus1=p2rdm29543.1.2 bus2=p2rlv30608.1.2 switch=False enabled=True phases=2 linecode=1p_ug_al_1/0_brenau_2

New Line.l(r:p2rdm29542-p2rlv30578) length=0.013498700000000002 units=km bus1=p2rdm29542.1.2 bus2=p2rlv30578.1.2 switch=False enabled=True phases=2 linecode=1p_ug_al_1/0_brenau_2

New Line.l(r:p2rdm29542-p2rdm29543) length=0.0473819 units=km bus1=p2rdm29543.1.2 bus2=p2rdm29542.1.2 switch=False enabled=True phases=2 linecode=1p_ug_al_1/0_brenau_2

New Line.l(r:p2rdm29540-p2rdm29543) length=0.00678251 units=km bus1=p2rdm29540.1.2 bus2=p2rdm29543.1.2 switch=False enabled=True phases=2 linecode=1p_ug_al_1/0_brenau_2

New Line.l(r:p2rdm29540-p2rdm29541) length=0.013103300000000002 units=km bus1=p2rdm29541.1.2 bus2=p2rdm29540.1.2 switch=False enabled=True phases=2 linecode=1p_ug_al_1/0_brenau_2

New Line.l(r:p2rdm29541-p2rdt12842lv) length=0.00633785 units=km bus1=p2rdt12842lv.1.2 bus2=p2rdm29541.1.2 switch=False enabled=True phases=2 linecode=1p_ug_al_1/0_brenau_2

New Line.l(r:p2rdt12843lv-p2rlv29902) length=0.001 units=km bus1=p2rdt12843lv.1.2 bus2=p2rlv29902.1.2 switch=False enabled=True phases=2 linecode=1p_oh_al_4_periwinkle_2

New Line.l(r:p2rdt12844lv-p2rlv29903) length=0.007627650000000001 units=km bus1=p2rdt12844lv.1.2 bus2=p2rlv29903.1.2 switch=False enabled=True phases=2 linecode=1p_oh_al_2/0_rucina_2

New Line.l(r:p2rdm29546-p2rlv29904) length=0.0118337 units=km bus1=p2rdm29546.1.2 bus2=p2rlv29904.1.2 switch=False enabled=True phases=2 linecode=1p_oh_al_2/0_rucina_2

New Line.l(r:p2rdm29546-p2rdt12844lv) length=0.0334773 units=km bus1=p2rdt12844lv.1.2 bus2=p2rdm29546.1.2 switch=False enabled=True phases=2 linecode=1p_oh_al_4/0_zuzara_2

New Line.l(r:p2rdt12845lv-p2rlv29905) length=0.0106121 units=km bus1=p2rdt12845lv.1.2 bus2=p2rlv29905.1.2 switch=False enabled=True phases=2 linecode=1p_oh_al_2/0_rucina_2

New Line.l(r:p2rdm29548-p2rlv29906) length=0.0160819 units=km bus1=p2rdm29548.1.2 bus2=p2rlv29906.1.2 switch=False enabled=True phases=2 linecode=1p_oh_al_2/0_rucina_2

New Line.l(r:p2rdm29548-p2rdt12846lv) length=0.0173397 units=km bus1=p2rdt12846lv.1.2 bus2=p2rdm29548.1.2 switch=False enabled=True phases=2 linecode=1p_oh_al_2/0_rucina_2

New Line.l(r:p2rdm29549-p2rlv31358) length=0.0129012 units=km bus1=p2rdm29549.1.2 bus2=p2rlv31358.1.2 switch=False enabled=True phases=2 linecode=1p_oh_al_2/0_rucina_2

New Line.l(r:p2rdm29549-p2rdt12846lv) length=0.0297438 units=km bus1=p2rdt12846lv.1.2 bus2=p2rdm29549.1.2 switch=False enabled=True phases=2 linecode=1p_oh_al_4/0_zuzara_2

New Line.l(r:p2rdm29550-p2rlv29907) length=0.0083293 units=km bus1=p2rdm29550.1.2 bus2=p2rlv29907.1.2 switch=False enabled=True phases=2 linecode=1p_oh_al_2/0_rucina_2

New Line.l(r:p2rdm29553-p2rlv30145) length=0.0121341 units=km bus1=p2rdm29553.1.2 bus2=p2rlv30145.1.2 switch=False enabled=True phases=2 linecode=1p_oh_al_2/0_rucina_2

New Line.l(r:p2rdm29550-p2rdm29553) length=0.0328699 units=km bus1=p2rdm29550.1.2 bus2=p2rdm29553.1.2 switch=False enabled=True phases=2 linecode=1p_oh_al_4/0_zuzara_2

New Line.l(r:p2rdm29550-p2rdt12847lv) length=0.0206715 units=km bus1=p2rdt12847lv.1.2 bus2=p2rdm29550.1.2 switch=False enabled=True phases=2 linecode=1p_oh_al_2/0_rucina_2

New Line.l(r:p2rdm29551-p2rlv29908) length=0.0115687 units=km bus1=p2rdm29551.1.2 bus2=p2rlv29908.1.2 switch=False enabled=True phases=2 linecode=1p_ug_al_1/0_brenau_2

New Line.l(r:p2rdm29551-p2rlv29909) length=0.0317451 units=km bus1=p2rdm29551.1.2 bus2=p2rlv29909.1.2 switch=False enabled=True phases=2 linecode=1p_ug_al_1/0_brenau_2

New Line.l(r:p2rdm29551-p2rdt12847lv) length=0.00999396 units=km bus1=p2rdt12847lv.1.2 bus2=p2rdm29551.1.2 switch=False enabled=True phases=2 linecode=1p_ug_al_1/0_brenau_2

New Line.l(r:p2rdm29554-p2rlv29910) length=0.008412750000000002 units=km bus1=p2rdm29554.1.2 bus2=p2rlv29910.1.2 switch=False enabled=True phases=2 linecode=1p_ug_al_1/0_brenau_2

New Line.l(r:p2rdm29554-p2rdt12848lv) length=0.0171246 units=km bus1=p2rdt12848lv.1.2 bus2=p2rdm29554.1.2 switch=False enabled=True phases=2 linecode=1p_ug_al_1/0_brenau_2

New Line.l(r:p2rdm29556-p2rlv30148) length=0.0127485 units=km bus1=p2rdm29556.1.2 bus2=p2rlv30148.1.2 switch=False enabled=True phases=2 linecode=1p_ug_al_1/0_brenau_2

New Line.l(r:p2rdm29555-p2rlv29911) length=0.0278094 units=km bus1=p2rdm29555.1.2 bus2=p2rlv29911.1.2 switch=False enabled=True phases=2 linecode=1p_ug_al_1/0_brenau_2

New Line.l(r:p2rdm29555-p2rdm29556) length=0.0206981 units=km bus1=p2rdm29556.1.2 bus2=p2rdm29555.1.2 switch=False enabled=True phases=2 linecode=1p_ug_al_1/0_brenau_2

New Line.l(r:p2rdm29556-p2rdt12848lv) length=0.0171718 units=km bus1=p2rdt12848lv.1.2 bus2=p2rdm29556.1.2 switch=False enabled=True phases=2 linecode=1p_ug_al_2/0_converse_2

New Line.l(r:p2rdt12849lv-p2rlv29912) length=0.0271903 units=km bus1=p2rdt12849lv.1.2 bus2=p2rlv29912.1.2 switch=False enabled=True phases=2 linecode=1p_ug_al_2/0_converse_2

New Line.l(r:p2rdt12849lv-p2rlv30043) length=0.011733600000000002 units=km bus1=p2rdt12849lv.1.2 bus2=p2rlv30043.1.2 switch=False enabled=True phases=2 linecode=1p_ug_al_2/0_converse_2

New Line.l(r:p2rdm29559-p2rlv31359) length=0.00983246 units=km bus1=p2rdm29559.1.2 bus2=p2rlv31359.1.2 switch=False enabled=True phases=2 linecode=1p_ug_al_4/0_sweetbriar_2

New Line.l(r:p2rdm29559-p2rdt12849lv) length=0.00876015 units=km bus1=p2rdt12849lv.1.2 bus2=p2rdm29559.1.2 switch=False enabled=True phases=2 linecode=1p_ug_al_4/0_sweetbriar_2

New Line.l(r:p2rdt12850lv-p2rlv29916) length=0.0496282 units=km bus1=p2rdt12850lv.1.2 bus2=p2rlv29916.1.2 switch=False enabled=True phases=2 linecode=1p_ug_al_1/0_brenau_2

...