tests/data/dynamic_voltage_support_test_project/DSSfiles/Loads.dss
New Load.load_p2rlv29458_1 conn=wye bus1=p2rlv29458.1 kV=0.12 Vminpu=0.8 Vmaxpu=1.2 model=1 kW=1.996798907530164 kvar=0.8717719006522443 Phases=1 !yearly=res_kw_9508_pu

New Load.load_p2rlv29458_2 conn=wye bus1=p2rlv29458.2 kV=0.12 Vminpu=0.8 Vmaxpu=1.2 model=1 kW=1.996798907530164 kvar=0.8717719006522443 Phases=1 !yearly=res_kw_9508_pu

New Load.load_p2rlv29459_1 conn=wye bus1=p2rlv29459.1 kV=0.12 Vminpu=0.8 Vmaxpu=1.2 model=1 kW=1.3067870545822593 kvar=0.7187638131848453 Phases=1 !yearly=res_kw_12787_pu

New Load.load_p2rlv29459_2 conn=wye bus1=p2rlv29459.2 kV=0.12 Vminpu=0.8 Vmaxpu=1.2 model=1 kW=1.3067870545822593 kvar=0.7187638131848453 Phases=1 !yearly=res_kw_12787_pu

New Load.load_p2rlv29460_1 conn=wye bus1=p2rlv29460.1 kV=0.12 Vminpu=0.8 Vmaxpu=1.2 model=1 kW=1.9029063430901945 kvar=0.888181875092591 Phases=1 !yearly=res_kw_982_pu

New Load.load_p2rlv29460_2 conn=wye bus1=p2rlv29460.2 kV=0.12 Vminpu=0.8 Vmaxpu=1.2 model=1 kW=1.9029063430901945 kvar=0.888181875092591 Phases=1 !yearly=res_kw_982_pu

New Load.load_p2rlv29461_1 conn=wye bus1=p2rlv29461.1 kV=0.12 Vminpu=0.8 Vmaxpu=1.2 model=1 kW=1.4794755457968312 kvar=0.46197673612457824 Phases=1 !yearly=res_kw_10490_pu

New Load.load_p2rlv29461_2 conn=wye bus1=p2rlv29461.2 kV=0.12 Vminpu=0.8 Vmaxpu=1.2 model=1 kW=1.4794755457968312 kvar=0.46197673612457824 Phases=1 !yearly=res_kw_10490_pu

New Load.load_p2rlv29462_1 conn=wye bus1=p2rlv29462.1 kV=0.12 Vminpu=0.8 Vmaxpu=1.2 model=1 kW=3.1745855097557687 kvar=0.3470267650146518 Phases=1 !yearly=res_kw_14110_pu

New Load.load_p2rlv29462_2 conn=wye bus1=p2rlv29462.2 kV=0.12 Vminpu=0.8 Vmaxpu=1.2 model=1 kW=3.1745855097557687 kvar=0.3470267650146518 Phases=1 !yearly=res_kw_14110_pu

New Load.load_p2rlv29463_1 conn=wye bus1=p2rlv29463.1 kV=0.12 Vminpu=0.8 Vmaxpu=1.2 model=1 kW=1.1461342593009323 kvar=0.5165512162199262 Phases=1 !yearly=res_kw_6984_pu

New Load.load_p2rlv29463_2 conn=wye bus1=p2rlv29463.2 kV=0.12 Vminpu=0.8 Vmaxpu=1.2 model=1 kW=1.1461342593009323 kvar=0.5165512162199262 Phases=1 !yearly=res_kw_6984_pu

New Load.load_p2rlv29464_1 conn=wye bus1=p2rlv29464.1 kV=0.12 Vminpu=0.8 Vmaxpu=1.2 model=1 kW=0.4585094523583652 kvar=0.19519922093662737 Phases=1 !yearly=res_kw_14441_pu

New Load.load_p2rlv29464_2 conn=wye bus1=p2rlv29464.2 kV=0.12 Vminpu=0.8 Vmaxpu=1.2 model=1 kW=0.4585094523583652 kvar=0.19519922093662737 Phases=1 !yearly=res_kw_14441_pu

New Load.load_p2rlv29465_1 conn=wye bus1=p2rlv29465.1 kV=0.12 Vminpu=0.8 Vmaxpu=1.2 model=1 kW=2.125662061080136 kvar=0.6733739749908499 Phases=1 !yearly=res_kw_11272_pu

New Load.load_p2rlv29465_2 conn=wye bus1=p2rlv29465.2 kV=0.12 Vminpu=0.8 Vmaxpu=1.2 model=1 kW=2.125662061080136 kvar=0.6733739749908499 Phases=1 !yearly=res_kw_11272_pu

New Load.load_p2rlv29466_1 conn=wye bus1=p2rlv29466.1 kV=0.12 Vminpu=0.8 Vmaxpu=1.2 model=1 kW=2.207629741893862 kvar=0.47552489685620736 Phases=1 !yearly=com_kw_16036_pu

New Load.load_p2rlv29466_2 conn=wye bus1=p2rlv29466.2 kV=0.12 Vminpu=0.8 Vmaxpu=1.2 model=1 kW=2.207629741893862 kvar=0.47552489685620736 Phases=1 !yearly=com_kw_16036_pu

New Load.load_p2rlv29475_1 conn=wye bus1=p2rlv29475.1 kV=0.12 Vminpu=0.8 Vmaxpu=1.2 model=1 kW=2.4123765971325577 kvar=0.9812012794272229 Phases=1 !yearly=res_kw_12272_pu

New Load.load_p2rlv29475_2 conn=wye bus1=p2rlv29475.2 kV=0.12 Vminpu=0.8 Vmaxpu=1.2 model=1 kW=2.4123765971325577 kvar=0.9812012794272229 Phases=1 !yearly=res_kw_12272_pu

New Load.load_p2rlv29476_1 conn=wye bus1=p2rlv29476.1 kV=0.12 Vminpu=0.8 Vmaxpu=1.2 model=1 kW=1.3307696614484872 kvar=0.07740524652130432 Phases=1 !yearly=res_kw_10372_pu

New Load.load_p2rlv29476_2 conn=wye bus1=p2rlv29476.2 kV=0.12 Vminpu=0.8 Vmaxpu=1.2 model=1 kW=1.3307696614484872 kvar=0.07740524652130432 Phases=1 !yearly=res_kw_10372_pu

New Load.load_p2rlv29477_1 conn=wye bus1=p2rlv29477.1 kV=0.12 Vminpu=0.8 Vmaxpu=1.2 model=1 kW=2.6224477749097725 kvar=0.939411358234502 Phases=1 !yearly=res_kw_6975_pu

New Load.load_p2rlv29477_2 conn=wye bus1=p2rlv29477.2 kV=0.12 Vminpu=0.8 Vmaxpu=1.2 model=1 kW=2.6224477749097725 kvar=0.939411358234502 Phases=1 !yearly=res_kw_6975_pu

New Load.load_p2rlv29478_1 conn=wye bus1=p2rlv29478.1 kV=0.12 Vminpu=0.8 Vmaxpu=1.2 model=1 kW=2.1976836424562762 kvar=0.1051220183522544 Phases=1 !yearly=com_kw_17157_pu

New Load.load_p2rlv29478_2 conn=wye bus1=p2rlv29478.2 kV=0.12 Vminpu=0.8 Vmaxpu=1.2 model=1 kW=2.1976836424562762 kvar=0.1051220183522544 Phases=1 !yearly=com_kw_17157_pu

New Load.load_p2rlv29479_1 conn=wye bus1=p2rlv29479.1 kV=0.12 Vminpu=0.8 Vmaxpu=1.2 model=1 kW=2.32403643380503 kvar=0.6293121819683343 Phases=1 !yearly=com_kw_32269_pu

New Load.load_p2rlv29479_2 conn=wye bus1=p2rlv29479.2 kV=0.12 Vminpu=0.8 Vmaxpu=1.2 model=1 kW=2.32403643380503 kvar=0.6293121819683343 Phases=1 !yearly=com_kw_32269_pu

New Load.load_p2rlv29480_1 conn=wye bus1=p2rlv29480.1 kV=0.12 Vminpu=0.8 Vmaxpu=1.2 model=1 kW=2.0191431035669187 kvar=0.3818764773978318 Phases=1 !yearly=com_kw_35553_pu

New Load.load_p2rlv29480_2 conn=wye bus1=p2rlv29480.2 kV=0.12 Vminpu=0.8 Vmaxpu=1.2 model=1 kW=2.0191431035669187 kvar=0.3818764773978318 Phases=1 !yearly=com_kw_35553_pu

New Load.load_p2rlv29481_1 conn=wye bus1=p2rlv29481.1 kV=0.12 Vminpu=0.8 Vmaxpu=1.2 model=1 kW=2.1661051467831762 kvar=0.6317161905393411 Phases=1 !yearly=com_kw_19648_pu

New Load.load_p2rlv29481_2 conn=wye bus1=p2rlv29481.2 kV=0.12 Vminpu=0.8 Vmaxpu=1.2 model=1 kW=2.1661051467831762 kvar=0.6317161905393411 Phases=1 !yearly=com_kw_19648_pu

New Load.load_p2rlv29482_1 conn=wye bus1=p2rlv29482.1 kV=0.12 Vminpu=0.8 Vmaxpu=1.2 model=1 kW=2.839033632547656 kvar=0.36892018645953045 Phases=1 !yearly=com_kw_2479_pu

New Load.load_p2rlv29482_2 conn=wye bus1=p2rlv29482.2 kV=0.12 Vminpu=0.8 Vmaxpu=1.2 model=1 kW=2.839033632547656 kvar=0.36892018645953045 Phases=1 !yearly=com_kw_2479_pu

New Load.load_p2rlv29483_1 conn=wye bus1=p2rlv29483.1 kV=0.12 Vminpu=0.8 Vmaxpu=1.2 model=1 kW=2.940151571607843 kvar=0.7360323556900852 Phases=1 !yearly=com_kw_34135_pu

New Load.load_p2rlv29483_2 conn=wye bus1=p2rlv29483.2 kV=0.12 Vminpu=0.8 Vmaxpu=1.2 model=1 kW=2.940151571607843 kvar=0.7360323556900852 Phases=1 !yearly=com_kw_34135_pu

New Load.load_p2rlv29484_1 conn=wye bus1=p2rlv29484.1 kV=0.12 Vminpu=0.8 Vmaxpu=1.2 model=1 kW=1.9124808875079877 kvar=0.49876045144211356 Phases=1 !yearly=com_kw_2601_pu

New Load.load_p2rlv29484_2 conn=wye bus1=p2rlv29484.2 kV=0.12 Vminpu=0.8 Vmaxpu=1.2 model=1 kW=1.9124808875079877 kvar=0.49876045144211356 Phases=1 !yearly=com_kw_2601_pu

New Load.load_p2rlv29485_1 conn=wye bus1=p2rlv29485.1 kV=0.12 Vminpu=0.8 Vmaxpu=1.2 model=1 kW=2.0191431035669187 kvar=0.3818764773978318 Phases=1 !yearly=com_kw_35553_pu

New Load.load_p2rlv29485_2 conn=wye bus1=p2rlv29485.2 kV=0.12 Vminpu=0.8 Vmaxpu=1.2 model=1 kW=2.0191431035669187 kvar=0.3818764773978318 Phases=1 !yearly=com_kw_35553_pu

New Load.load_p2rlv29486_1 conn=wye bus1=p2rlv29486.1 kV=0.12 Vminpu=0.8 Vmaxpu=1.2 model=1 kW=2.892763602300674 kvar=0.6648734705927571 Phases=1 !yearly=com_kw_33434_pu

New Load.load_p2rlv29486_2 conn=wye bus1=p2rlv29486.2 kV=0.12 Vminpu=0.8 Vmaxpu=1.2 model=1 kW=2.892763602300674 kvar=0.6648734705927571 Phases=1 !yearly=com_kw_33434_pu

New Load.load_p2rlv29487_1 conn=wye bus1=p2rlv29487.1 kV=0.12 Vminpu=0.8 Vmaxpu=1.2 model=1 kW=2.2427189664810845 kvar=0.6160146168872371 Phases=1 !yearly=com_kw_16700_pu

New Load.load_p2rlv29487_2 conn=wye bus1=p2rlv29487.2 kV=0.12 Vminpu=0.8 Vmaxpu=1.2 model=1 kW=2.2427189664810845 kvar=0.6160146168872371 Phases=1 !yearly=com_kw_16700_pu

New Load.load_p2rlv29488_1 conn=wye bus1=p2rlv29488.1 kV=0.12 Vminpu=0.8 Vmaxpu=1.2 model=1 kW=2.2084970230804295 kvar=0.6059929399999135 Phases=1 !yearly=com_kw_16241_pu

New Load.load_p2rlv29488_2 conn=wye bus1=p2rlv29488.2 kV=0.12 Vminpu=0.8 Vmaxpu=1.2 model=1 kW=2.2084970230804295 kvar=0.6059929399999135 Phases=1 !yearly=com_kw_16241_pu

New Load.load_p2rlv29489_1 conn=wye bus1=p2rlv29489.1 kV=0.12 Vminpu=0.8 Vmaxpu=1.2 model=1 kW=3.019297318507635 kvar=0.02246974709606756 Phases=1 !yearly=com_kw_31717_pu

New Load.load_p2rlv29489_2 conn=wye bus1=p2rlv29489.2 kV=0.12 Vminpu=0.8 Vmaxpu=1.2 model=1 kW=3.019297318507635 kvar=0.02246974709606756 Phases=1 !yearly=com_kw_31717_pu

New Load.load_p2rlv29490_1 conn=wye bus1=p2rlv29489.1 kV=0.12 Vminpu=0.8 Vmaxpu=1.2 model=1 kW=2.2424734612480455 kvar=0.6529242742050403 Phases=1 !yearly=com_kw_32193_pu

New Load.load_p2rlv29490_2 conn=wye bus1=p2rlv29489.2 kV=0.12 Vminpu=0.8 Vmaxpu=1.2 model=1 kW=2.2424734612480455 kvar=0.6529242742050403 Phases=1 !yearly=com_kw_32193_pu

New Load.load_p2rlv29491_1 conn=wye bus1=p2rlv29491.1 kV=0.12 Vminpu=0.8 Vmaxpu=1.2 model=1 kW=2.243385388928283 kvar=0.18185664736822973 Phases=1 !yearly=com_kw_18116_pu

New Load.load_p2rlv29491_2 conn=wye bus1=p2rlv29491.2 kV=0.12 Vminpu=0.8 Vmaxpu=1.2 model=1 kW=2.243385388928283 kvar=0.18185664736822973 Phases=1 !yearly=com_kw_18116_pu

New Load.load_p2rlv29492_1 conn=wye bus1=p2rlv29492.1 kV=0.12 Vminpu=0.8 Vmaxpu=1.2 model=1 kW=2.781684048838155 kvar=0.7643971440160673 Phases=1 !yearly=com_kw_2536_pu

New Load.load_p2rlv29492_2 conn=wye bus1=p2rlv29492.2 kV=0.12 Vminpu=0.8 Vmaxpu=1.2 model=1 kW=2.781684048838155 kvar=0.7643971440160673 Phases=1 !yearly=com_kw_2536_pu

New Load.load_p2rlv29493_1 conn=wye bus1=p2rlv29493.1 kV=0.12 Vminpu=0.8 Vmaxpu=1.2 model=1 kW=2.634382378818398 kvar=0.7408111725995792 Phases=1 !yearly=com_kw_33727_pu

New Load.load_p2rlv29493_2 conn=wye bus1=p2rlv29493.2 kV=0.12 Vminpu=0.8 Vmaxpu=1.2 model=1 kW=2.634382378818398 kvar=0.7408111725995792 Phases=1 !yearly=com_kw_33727_pu

New Load.load_p2rlv29494_1 conn=wye bus1=p2rlv29494.1 kV=0.12 Vminpu=0.8 Vmaxpu=1.2 model=1 kW=4.3355603190645935 kvar=0.9435041304985261 Phases=1 !yearly=res_kw_1799_pu

New Load.load_p2rlv29494_2 conn=wye bus1=p2rlv29494.2 kV=0.12 Vminpu=0.8 Vmaxpu=1.2 model=1 kW=4.3355603190645935 kvar=0.9435041304985261 Phases=1 !yearly=res_kw_1799_pu

New Load.load_p2rlv29495_1 conn=wye bus1=p2rlv29495.1 kV=0.12 Vminpu=0.8 Vmaxpu=1.2 model=1 kW=1.7945002932492726 kvar=0.47970526391420704 Phases=1 !yearly=com_kw_31691_pu

New Load.load_p2rlv29495_2 conn=wye bus1=p2rlv29495.2 kV=0.12 Vminpu=0.8 Vmaxpu=1.2 model=1 kW=1.7945002932492726 kvar=0.47970526391420704 Phases=1 !yearly=com_kw_31691_pu

New Load.load_p2rlv29496_1 conn=wye bus1=p2rlv29496.1 kV=0.12 Vminpu=0.8 Vmaxpu=1.2 model=1 kW=1.9972586284721718 kvar=0.5405993695804993 Phases=1 !yearly=com_kw_33340_pu

New Load.load_p2rlv29496_2 conn=wye bus1=p2rlv29496.2 kV=0.12 Vminpu=0.8 Vmaxpu=1.2 model=1 kW=1.9972586284721718 kvar=0.5405993695804993 Phases=1 !yearly=com_kw_33340_pu

New Load.load_p2rlv29497_1 conn=wye bus1=p2rlv29497.1 kV=0.12 Vminpu=0.8 Vmaxpu=1.2 model=1 kW=2.3986740422629227 kvar=0.3270904554481944 Phases=1 !yearly=com_kw_41383_pu

New Load.load_p2rlv29497_2 conn=wye bus1=p2rlv29497.2 kV=0.12 Vminpu=0.8 Vmaxpu=1.2 model=1 kW=2.3986740422629227 kvar=0.3270904554481944 Phases=1 !yearly=com_kw_41383_pu

New Load.load_p2rlv29510_1 conn=wye bus1=p2rlv29510.1 kV=0.12 Vminpu=0.8 Vmaxpu=1.2 model=1 kW=4.0305121781432875 kvar=0.8997753808550907 Phases=1 !yearly=res_kw_6152_pu

New Load.load_p2rlv29510_2 conn=wye bus1=p2rlv29510.2 kV=0.12 Vminpu=0.8 Vmaxpu=1.2 model=1 kW=4.0305121781432875 kvar=0.8997753808550907 Phases=1 !yearly=res_kw_6152_pu

New Load.load_p2rlv29511_1 conn=wye bus1=p2rlv29511.1 kV=0.12 Vminpu=0.8 Vmaxpu=1.2 model=1 kW=4.11624663697688 kvar=1.195419500928415 Phases=1 !yearly=res_kw_11843_pu

New Load.load_p2rlv29511_2 conn=wye bus1=p2rlv29511.2 kV=0.12 Vminpu=0.8 Vmaxpu=1.2 model=1 kW=4.11624663697688 kvar=1.195419500928415 Phases=1 !yearly=res_kw_11843_pu

New Load.load_p2rlv29512_1 conn=wye bus1=p2rlv29512.1 kV=0.12 Vminpu=0.8 Vmaxpu=1.2 model=1 kW=2.676435500278435 kvar=0.621029186179399 Phases=1 !yearly=res_kw_5886_pu

New Load.load_p2rlv29512_2 conn=wye bus1=p2rlv29512.2 kV=0.12 Vminpu=0.8 Vmaxpu=1.2 model=1 kW=2.676435500278435 kvar=0.621029186179399 Phases=1 !yearly=res_kw_5886_pu

New Load.load_p2rlv29513_1 conn=wye bus1=p2rlv29513.1 kV=0.12 Vminpu=0.8 Vmaxpu=1.2 model=1 kW=1.7188002681357404 kvar=0.9474547211502857 Phases=1 !yearly=res_kw_14289_pu

New Load.load_p2rlv29513_2 conn=wye bus1=p2rlv29513.2 kV=0.12 Vminpu=0.8 Vmaxpu=1.2 model=1 kW=1.7188002681357404 kvar=0.9474547211502857 Phases=1 !yearly=res_kw_14289_pu

New Load.load_p2rlv29514_1 conn=wye bus1=p2rlv29514.1 kV=0.12 Vminpu=0.8 Vmaxpu=1.2 model=1 kW=2.4477708140814496 kvar=1.2695070292795452 Phases=1 !yearly=res_kw_14077_pu

New Load.load_p2rlv29514_2 conn=wye bus1=p2rlv29514.2 kV=0.12 Vminpu=0.8 Vmaxpu=1.2 model=1 kW=2.4477708140814496 kvar=1.2695070292795452 Phases=1 !yearly=res_kw_14077_pu

New Load.load_p2rlv29515_1 conn=wye bus1=p2rlv29515.1 kV=0.12 Vminpu=0.8 Vmaxpu=1.2 model=1 kW=1.9486089558351896 kvar=0.6918440012014316 Phases=1 !yearly=res_kw_2472_pu

New Load.load_p2rlv29515_2 conn=wye bus1=p2rlv29515.2 kV=0.12 Vminpu=0.8 Vmaxpu=1.2 model=1 kW=1.9486089558351896 kvar=0.6918440012014316 Phases=1 !yearly=res_kw_2472_pu

New Load.load_p2rlv29516_1 conn=wye bus1=p2rlv29516.1 kV=0.12 Vminpu=0.8 Vmaxpu=1.2 model=1 kW=2.0240502132333855 kvar=0.5295456567023789 Phases=1 !yearly=res_kw_10487_pu

New Load.load_p2rlv29516_2 conn=wye bus1=p2rlv29516.2 kV=0.12 Vminpu=0.8 Vmaxpu=1.2 model=1 kW=2.0240502132333855 kvar=0.5295456567023789 Phases=1 !yearly=res_kw_10487_pu

New Load.load_p2rlv29517_1 conn=wye bus1=p2rlv29517.1 kV=0.12 Vminpu=0.8 Vmaxpu=1.2 model=1 kW=4.709076706416643 kvar=0.09250802079027616 Phases=1 !yearly=res_kw_8820_pu

New Load.load_p2rlv29517_2 conn=wye bus1=p2rlv29517.2 kV=0.12 Vminpu=0.8 Vmaxpu=1.2 model=1 kW=4.709076706416643 kvar=0.09250802079027616 Phases=1 !yearly=res_kw_8820_pu

New Load.load_p2rlv29518_1 conn=wye bus1=p2rlv29518.1 kV=0.12 Vminpu=0.8 Vmaxpu=1.2 model=1 kW=3.0249001149027013 kvar=1.1152123155365268 Phases=1 !yearly=res_kw_14006_pu

New Load.load_p2rlv29518_2 conn=wye bus1=p2rlv29518.2 kV=0.12 Vminpu=0.8 Vmaxpu=1.2 model=1 kW=3.0249001149027013 kvar=1.1152123155365268 Phases=1 !yearly=res_kw_14006_pu

New Load.load_p2rlv29519_1 conn=wye bus1=p2rlv29519.1 kV=0.12 Vminpu=0.8 Vmaxpu=1.2 model=1 kW=0.7357445173923349 kvar=0.22390798723814198 Phases=1 !yearly=res_kw_14858_pu

New Load.load_p2rlv29519_2 conn=wye bus1=p2rlv29519.2 kV=0.12 Vminpu=0.8 Vmaxpu=1.2 model=1 kW=0.7357445173923349 kvar=0.22390798723814198 Phases=1 !yearly=res_kw_14858_pu

New Load.load_p2rlv29520_1 conn=wye bus1=p2rlv29520.1 kV=0.12 Vminpu=0.8 Vmaxpu=1.2 model=1 kW=4.556309964049523 kvar=0.8885881111360047 Phases=1 !yearly=res_kw_8491_pu

New Load.load_p2rlv29520_2 conn=wye bus1=p2rlv29520.2 kV=0.12 Vminpu=0.8 Vmaxpu=1.2 model=1 kW=4.556309964049523 kvar=0.8885881111360047 Phases=1 !yearly=res_kw_8491_pu

New Load.load_p2rlv29521_1 conn=wye bus1=p2rlv29521.1 kV=0.12 Vminpu=0.8 Vmaxpu=1.2 model=1 kW=2.6791078770470578 kvar=1.0782522975400575 Phases=1 !yearly=res_kw_14529_pu

New Load.load_p2rlv29521_2 conn=wye bus1=p2rlv29521.2 kV=0.12 Vminpu=0.8 Vmaxpu=1.2 model=1 kW=2.6791078770470578 kvar=1.0782522975400575 Phases=1 !yearly=res_kw_14529_pu

New Load.load_p2rlv29522_1 conn=wye bus1=p2rlv29522.1 kV=0.12 Vminpu=0.8 Vmaxpu=1.2 model=1 kW=4.2112308015019515 kvar=0.983574443669436 Phases=1 !yearly=res_kw_12440_pu

New Load.load_p2rlv29522_2 conn=wye bus1=p2rlv29522.2 kV=0.12 Vminpu=0.8 Vmaxpu=1.2 model=1 kW=4.2112308015019515 kvar=0.983574443669436 Phases=1 !yearly=res_kw_12440_pu

New Load.load_p2rlv29523_1 conn=wye bus1=p2rlv29523.1 kV=0.12 Vminpu=0.8 Vmaxpu=1.2 model=1 kW=2.380118716459229 kvar=0.6130484178227817 Phases=1 !yearly=res_kw_7397_pu

New Load.load_p2rlv29523_2 conn=wye bus1=p2rlv29523.2 kV=0.12 Vminpu=0.8 Vmaxpu=1.2 model=1 kW=2.380118716459229 kvar=0.6130484178227817 Phases=1 !yearly=res_kw_7397_pu

New Load.load_p2rlv29524_1 conn=wye bus1=p2rlv29524.1 kV=0.12 Vminpu=0.8 Vmaxpu=1.2 model=1 kW=3.6669289783709 kvar=0.056901546523703654 Phases=1 !yearly=res_kw_11932_pu

New Load.load_p2rlv29524_2 conn=wye bus1=p2rlv29524.2 kV=0.12 Vminpu=0.8 Vmaxpu=1.2 model=1 kW=3.6669289783709 kvar=0.056901546523703654 Phases=1 !yearly=res_kw_11932_pu

New Load.load_p2rlv29525_1 conn=wye bus1=p2rlv29525.1 kV=0.12 Vminpu=0.8 Vmaxpu=1.2 model=1 kW=1.4909676090654276 kvar=0.5843813020419805 Phases=1 !yearly=res_kw_8020_pu

New Load.load_p2rlv29525_2 conn=wye bus1=p2rlv29525.2 kV=0.12 Vminpu=0.8 Vmaxpu=1.2 model=1 kW=1.4909676090654276 kvar=0.5843813020419805 Phases=1 !yearly=res_kw_8020_pu

New Load.load_p2rlv29526_1 conn=wye bus1=p2rlv29526.1 kV=0.12 Vminpu=0.8 Vmaxpu=1.2 model=1 kW=4.150751334896084 kvar=1.054934341503966 Phases=1 !yearly=res_kw_10867_pu

New Load.load_p2rlv29526_2 conn=wye bus1=p2rlv29526.2 kV=0.12 Vminpu=0.8 Vmaxpu=1.2 model=1 kW=4.150751334896084 kvar=1.054934341503966 Phases=1 !yearly=res_kw_10867_pu

New Load.load_p2rlv29527_1 conn=wye bus1=p2rlv29527.1 kV=0.12 Vminpu=0.8 Vmaxpu=1.2 model=1 kW=2.293973040287939 kvar=0.5473972554097862 Phases=1 !yearly=res_kw_2263_pu

New Load.load_p2rlv29527_2 conn=wye bus1=p2rlv29527.2 kV=0.12 Vminpu=0.8 Vmaxpu=1.2 model=1 kW=2.293973040287939 kvar=0.5473972554097862 Phases=1 !yearly=res_kw_2263_pu

New Load.load_p2rlv29528_1 conn=wye bus1=p2rlv29528.1 kV=0.12 Vminpu=0.8 Vmaxpu=1.2 model=1 kW=3.4605217724966244 kvar=1.0924708586317713 Phases=1 !yearly=res_kw_5183_pu

New Load.load_p2rlv29528_2 conn=wye bus1=p2rlv29528.2 kV=0.12 Vminpu=0.8 Vmaxpu=1.2 model=1 kW=3.4605217724966244 kvar=1.0924708586317713 Phases=1 !yearly=res_kw_5183_pu

New Load.load_p2rlv29544_1 conn=wye bus1=p2rlv29544.1 kV=0.12 Vminpu=0.8 Vmaxpu=1.2 model=1 kW=4.234980013002153 kvar=0.7303750309107965 Phases=1 !yearly=res_kw_7105_pu

New Load.load_p2rlv29544_2 conn=wye bus1=p2rlv29544.2 kV=0.12 Vminpu=0.8 Vmaxpu=1.2 model=1 kW=4.234980013002153 kvar=0.7303750309107965 Phases=1 !yearly=res_kw_7105_pu

New Load.load_p2rlv29591_1 conn=wye bus1=p2rlv29591.1 kV=0.12 Vminpu=0.8 Vmaxpu=1.2 model=1 kW=1.2807112493226631 kvar=0.5756037140311296 Phases=1 !yearly=res_kw_5528_pu

New Load.load_p2rlv29591_2 conn=wye bus1=p2rlv29591.2 kV=0.12 Vminpu=0.8 Vmaxpu=1.2 model=1 kW=1.2807112493226631 kvar=0.5756037140311296 Phases=1 !yearly=res_kw_5528_pu

New Load.load_p2rlv29592_1 conn=wye bus1=p2rlv29592.1 kV=0.12 Vminpu=0.8 Vmaxpu=1.2 model=1 kW=3.562535571473785 kvar=0.37216890019621607 Phases=1 !yearly=com_kw_29107_pu

New Load.load_p2rlv29592_2 conn=wye bus1=p2rlv29592.2 kV=0.12 Vminpu=0.8 Vmaxpu=1.2 model=1 kW=3.562535571473785 kvar=0.37216890019621607 Phases=1 !yearly=com_kw_29107_pu

New Load.load_p2rlv29593_1 conn=wye bus1=p2rlv29593.1 kV=0.12 Vminpu=0.8 Vmaxpu=1.2 model=1 kW=3.133603663599094 kvar=0.018922139033990728 Phases=1 !yearly=com_kw_20991_pu

New Load.load_p2rlv29593_2 conn=wye bus1=p2rlv29593.2 kV=0.12 Vminpu=0.8 Vmaxpu=1.2 model=1 kW=3.133603663599094 kvar=0.018922139033990728 Phases=1 !yearly=com_kw_20991_pu

New Load.load_p2rlv29594_1 conn=wye bus1=p2rlv29594.1 kV=0.12 Vminpu=0.8 Vmaxpu=1.2 model=1 kW=2.31125911334339 kvar=0.6469035988597648 Phases=1 !yearly=com_kw_33186_pu

New Load.load_p2rlv29594_2 conn=wye bus1=p2rlv29594.2 kV=0.12 Vminpu=0.8 Vmaxpu=1.2 model=1 kW=2.31125911334339 kvar=0.6469035988597648 Phases=1 !yearly=com_kw_33186_pu

New Load.load_p2rlv29595_1 conn=wye bus1=p2rlv29594.1 kV=0.12 Vminpu=0.8 Vmaxpu=1.2 model=1 kW=2.340123280881575 kvar=0.28306337277173615 Phases=1 !yearly=com_kw_33792_pu

New Load.load_p2rlv29595_2 conn=wye bus1=p2rlv29594.2 kV=0.12 Vminpu=0.8 Vmaxpu=1.2 model=1 kW=2.340123280881575 kvar=0.28306337277173615 Phases=1 !yearly=com_kw_33792_pu

New Load.load_p2rlv29596_1 conn=wye bus1=p2rlv29596.1 kV=0.12 Vminpu=0.8 Vmaxpu=1.2 model=1 kW=2.359977223622412 kvar=0.2969054470018346 Phases=1 !yearly=com_kw_33783_pu

New Load.load_p2rlv29596_2 conn=wye bus1=p2rlv29596.2 kV=0.12 Vminpu=0.8 Vmaxpu=1.2 model=1 kW=2.359977223622412 kvar=0.2969054470018346 Phases=1 !yearly=com_kw_33783_pu

New Load.load_p2rlv29597_1 conn=wye bus1=p2rlv29597.1 kV=0.12 Vminpu=0.8 Vmaxpu=1.2 model=1 kW=1.6323867069620042 kvar=0.40255171211713736 Phases=1 !yearly=com_kw_17825_pu

New Load.load_p2rlv29597_2 conn=wye bus1=p2rlv29597.2 kV=0.12 Vminpu=0.8 Vmaxpu=1.2 model=1 kW=1.6323867069620042 kvar=0.40255171211713736 Phases=1 !yearly=com_kw_17825_pu

New Load.load_p2rlv29598_1 conn=wye bus1=p2rlv29598.1 kV=0.12 Vminpu=0.8 Vmaxpu=1.2 model=1 kW=1.7142625617629952 kvar=0.4166771141877461 Phases=1 !yearly=com_kw_29552_pu

New Load.load_p2rlv29598_2 conn=wye bus1=p2rlv29598.2 kV=0.12 Vminpu=0.8 Vmaxpu=1.2 model=1 kW=1.7142625617629952 kvar=0.4166771141877461 Phases=1 !yearly=com_kw_29552_pu

New Load.load_p2rlv29599_1 conn=wye bus1=p2rlv29599.1 kV=0.12 Vminpu=0.8 Vmaxpu=1.2 model=1 kW=2.109177669729331 kvar=0.5486693289215298 Phases=1 !yearly=com_kw_29611_pu

...